CemigDFeeders/CETU04/CETU04SegmentosMT.dss
new line.TR10099062 bus1=BMT6175031B.3,bus2=BMT6175108B.3,Phases=1,Linecode=CAB103_3_1,Length=0.025965000,Units=km
new line.TR10099104 bus1=BMT6175108B.3,bus2=BMT6175115B.3,Phases=1,Linecode=CAB103_3_1,Length=0.033126000,Units=km
new line.TR10099111 bus1=BMT6175115B.3,bus2=BMT168251555.3,Phases=1,Linecode=CAB103_3_1,Length=0.033126000,Units=km
new line.TR10099118 bus1=BMT168251555.3,bus2=BMT168251556.3,Phases=1,Linecode=CAB202_3_1,Length=0.105394000,Units=km
new line.TR10099125 bus1=BMT168251555.3,bus2=BMT168251557.3,Phases=1,Linecode=CAB103_3_1,Length=0.046697000,Units=km
new line.TR10100350 bus1=BMT170101273.1.2.3,bus2=BMT170101274.1.2.3,Phases=3,Linecode=CAB202_3_3,Length=0.079068000,Units=km
new line.TR10100357 bus1=BMT170101273.2,bus2=BMT6177754B.2,Phases=1,Linecode=CAB103_3_1,Length=0.079390000,Units=km
new line.TR10100364 bus1=BMT6177754B.2,bus2=BMT6177761B.2,Phases=1,Linecode=CAB103_3_1,Length=0.056017000,Units=km
new line.TR10100371 bus1=BMT6177761B.2,bus2=BMT170101275.2,Phases=1,Linecode=CAB103_3_1,Length=0.041018000,Units=km
new line.TR10107903 bus1=BMT6190123B.1,bus2=BMT160020569.1,Phases=1,Linecode=CAB103_3_1,Length=0.049779000,Units=km
new line.TR10112194 bus1=BMT99456807.1.2.3,bus2=BMT99456814.1.2.3,Phases=3,Linecode=CABA08_3_3,Length=0.023004000,Units=km
new line.TR10112222 bus1=BMT157033209.1.2.3,bus2=BMT157033210.1.2.3,Phases=3,Linecode=CAB611_5_3,Length=0.007002000,Units=km
new line.TR10112229 bus1=BMT157033210.1.2.3,bus2=BMT157033211.1.2.3,Phases=3,Linecode=CAB611_5_3,Length=0.078020000,Units=km
new line.TR10112257 bus1=BMT6196822B.1.2.3,bus2=BMT99456849.1.2.3,Phases=3,Linecode=CABA08_3_3,Length=0.038956000,Units=km
new line.TR10114168 bus1=BMT6200476B.1.2.3,bus2=BMT99456863.1.2.3,Phases=3,Linecode=CABA08_3_3,Length=0.041117000,Units=km
new line.TR10114175 bus1=BMT6200476C.1.2.3,bus2=BMT157033036.1.2.3,Phases=3,Linecode=CABA08_3_3,Length=0.041117000,Units=km
new line.TR10114280 bus1=BMT6200595B.1.2.3,bus2=BMT16387065.1.2.3,Phases=3,Linecode=CAB108_3_3,Length=0.036228000,Units=km
new line.TR10114287 bus1=BMT6200595C.1.2.3,bus2=BMT103773756.1.2.3,Phases=3,Linecode=CABA06_3_3,Length=0.028466000,Units=km
new line.TR10114308 bus1=BMT16387065.1.2.3,bus2=BMT2610021B.1.2.3,Phases=3,Linecode=CAB108_3_3,Length=0.025323000,Units=km
new line.TR10114483 bus1=BMT6200805B.1.2.3,bus2=BMT6200595C.1.2.3,Phases=3,Linecode=CABA06_3_3,Length=0.025500000,Units=km
new line.TR10117647 bus1=BMT6205523B.1.2.3,bus2=BMT734987B.1.2.3,Phases=3,Linecode=CABA08_3_3,Length=0.006084000,Units=km
new line.TR10117654 bus1=BMT6205523C.1.2.3,bus2=BMT734987C.1.2.3,Phases=3,Linecode=CAB108_3_3,Length=0.006084000,Units=km
new line.TR10121112 bus1=BMT6211312B.1.2.3,bus2=BMT6211319B.1.2.3,Phases=3,Linecode=CABA08_3_3,Length=0.043297000,Units=km
new line.TR10121119 bus1=BMT6211319B.1.2.3,bus2=BMT6211326B.1.2.3,Phases=3,Linecode=CABA08_3_3,Length=0.040119000,Units=km
new line.TR10121126 bus1=BMT6211326B.1.2.3,bus2=BMT6211333B.1.2.3,Phases=3,Linecode=CABA08_3_3,Length=0.044291000,Units=km
new line.TR10121133 bus1=BMT6211333B.1.2.3,bus2=BMT6211340B.1.2.3,Phases=3,Linecode=CABA08_3_3,Length=0.041311000,Units=km
new line.TR10121140 bus1=BMT6211340B.1.2.3,bus2=BMT6211347B.1.2.3,Phases=3,Linecode=CABA08_3_3,Length=0.033142000,Units=km
new line.TR10121147 bus1=BMT6211347B.1.2.3,bus2=BMT6211354B.1.2.3,Phases=3,Linecode=CABA08_3_3,Length=0.027023000,Units=km
new line.TR10121154 bus1=BMT6211354B.1.2.3,bus2=BMT6211361B.1.2.3,Phases=3,Linecode=CABA08_3_3,Length=0.027664000,Units=km
new line.TR10121161 bus1=BMT6211361B.1.2.3,bus2=BMT6211375B.1.2.3,Phases=3,Linecode=CABA08_3_3,Length=0.032021000,Units=km
new line.TR10121168 bus1=BMT6211375B.1.2.3,bus2=BMT6211382B.1.2.3,Phases=3,Linecode=CABA08_3_3,Length=0.047050000,Units=km
new line.TR10121175 bus1=BMT6211382B.1.2.3,bus2=BMT6211389B.1.2.3,Phases=3,Linecode=CABA08_3_3,Length=0.038006000,Units=km
new line.TR10121182 bus1=BMT6211389B.1.2.3,bus2=BMT739348B.1.2.3,Phases=3,Linecode=CABA08_3_3,Length=0.029619000,Units=km
new line.TR10123065 bus1=BMT6213979B.1.2.3,bus2=BMT99457003.1.2.3,Phases=3,Linecode=CABA08_3_3,Length=0.027663000,Units=km
new line.TR10123072 bus1=BMT6213979C.1.2.3,bus2=BMT745592B.1.2.3,Phases=3,Linecode=CAB104_3_3,Length=0.015814000,Units=km
new line.TR10123149 bus1=BMT99457010.1.2.3,bus2=BMT6214161B.1.2.3,Phases=3,Linecode=CAB208_3_3,Length=0.299093000,Units=km
new line.TR10123191 bus1=BMT6214161B.1.2.3,bus2=BMT6214322B.1.2.3,Phases=3,Linecode=CAB208_3_3,Length=0.179262000,Units=km
new line.TR10123310 bus1=BMT6214322B.1.2.3,bus2=BMT6214399B.1.2.3,Phases=3,Linecode=CAB208_3_3,Length=0.198202000,Units=km
new line.TR10123359 bus1=BMT6214399B.1.2.3,bus2=BMT6214441B.1.2.3,Phases=3,Linecode=CAB208_3_3,Length=0.373734000,Units=km
new line.TR10123394 bus1=BMT6214441B.1.2.3,bus2=BMT6214476B.1.2.3,Phases=3,Linecode=CAB208_3_3,Length=0.082037000,Units=km
new line.TR10123422 bus1=BMT6214476B.1.2.3,bus2=BMT6214525B.1.2.3,Phases=3,Linecode=CAB208_3_3,Length=0.430379000,Units=km
new line.TR10123443 bus1=BMT6214525B.1.2.3,bus2=BMT6214567B.1.2.3,Phases=3,Linecode=CAB208_3_3,Length=0.088428000,Units=km
new line.TR10123450 bus1=BMT6214567B.1.2.3,bus2=BMT6214574B.1.2.3,Phases=3,Linecode=CAB208_3_3,Length=0.081358000,Units=km
new line.TR10123457 bus1=BMT6214574B.1.2.3,bus2=BMT6214581B.1.2.3,Phases=3,Linecode=CAB208_3_3,Length=0.151403000,Units=km
new line.TR10123464 bus1=BMT6214581B.1.2.3,bus2=BMT6214616B.1.2.3,Phases=3,Linecode=CAB208_3_3,Length=0.142920000,Units=km
new line.TR10123485 bus1=BMT6214616B.1.2.3,bus2=BMT6214637B.1.2.3,Phases=3,Linecode=CAB208_3_3,Length=0.349637000,Units=km
new line.TR10123492 bus1=BMT6214637B.1.2.3,bus2=BMT6214658B.1.2.3,Phases=3,Linecode=CAB208_3_3,Length=0.101726000,Units=km
new line.TR10123499 bus1=BMT6214658B.1.2.3,bus2=BMT6214679B.1.2.3,Phases=3,Linecode=CAB208_3_3,Length=0.322446000,Units=km
new line.TR10123506 bus1=BMT6214679B.1.2.3,bus2=BMT6214707B.1.2.3,Phases=3,Linecode=CAB208_3_3,Length=0.080237000,Units=km
new line.TR10123520 bus1=BMT6214707B.1.2.3,bus2=BMT6214728B.1.2.3,Phases=3,Linecode=CAB208_3_3,Length=0.102802000,Units=km
new line.TR10123527 bus1=BMT6214728B.1.2.3,bus2=BMT6214770B.1.2.3,Phases=3,Linecode=CAB208_3_3,Length=0.074858000,Units=km
new line.TR10123541 bus1=BMT6214770B.1.2.3,bus2=BMT99457017.1.2.3,Phases=3,Linecode=CAB208_3_3,Length=0.385005000,Units=km
new line.TR10123674 bus1=BMT161048165.1.2.3,bus2=BMT6215148B.1.2.3,Phases=3,Linecode=CAB208_3_3,Length=0.087380000,Units=km
new line.TR10123807 bus1=BMT6215148B.1.2.3,bus2=BMT6215162B.1.2.3,Phases=3,Linecode=CAB208_3_3,Length=0.102412000,Units=km
new line.TR10123814 bus1=BMT6215162B.1.2.3,bus2=BMT161048166.1.2.3,Phases=3,Linecode=CAB208_3_3,Length=0.181568000,Units=km
new line.TR10123884 bus1=BMT6215309B.1.2.3,bus2=BMT6215393B.1.2.3,Phases=3,Linecode=CAB208_3_3,Length=0.300488000,Units=km
new line.TR10123926 bus1=BMT6215393B.1.2.3,bus2=BMT99457031.1.2.3,Phases=3,Linecode=CAB208_3_3,Length=0.170841000,Units=km
new line.TR10123933 bus1=BMT103801091.1.2.3,bus2=BMT16997682.1.2.3,Phases=3,Linecode=CAB108_3_3,Length=0.014215000,Units=km
new line.TR10123940 bus1=BMT99457038.1.2.3,bus2=BMT99457045.1.2.3,Phases=3,Linecode=CAB208_3_3,Length=0.011316000,Units=km
new line.TR10123954 bus1=BMT160755409.1.2.3,bus2=BMT160755410.1.2.3,Phases=3,Linecode=CAB208_3_3,Length=0.014215000,Units=km
new line.TR10129988 bus1=BMT6225704B.1.2.3,bus2=BMT160755413.1.2.3,Phases=3,Linecode=CAB108_3_3,Length=0.050008000,Units=km
new line.TR10130037 bus1=BMT160755413.1.2.3,bus2=BMT160755414.1.2.3,Phases=3,Linecode=CAB610_3_3,Length=0.005100000,Units=km
new line.TR10130107 bus1=BMT99457108.1.2.3,bus2=BMT150340616.1.2.3,Phases=3,Linecode=CAB610_3_3,Length=0.021217000,Units=km
new line.TR10130506 bus1=BMT6227104B.1.2.3,bus2=BMT6227118B.1.2.3,Phases=3,Linecode=CABA08_3_3,Length=0.041117000,Units=km
new line.TR10130520 bus1=BMT6227118B.1.2.3,bus2=BMT6227132B.1.2.3,Phases=3,Linecode=CABA08_3_3,Length=0.045888000,Units=km
new line.TR10130527 bus1=BMT6227132B.1.2.3,bus2=BMT6227139B.1.2.3,Phases=3,Linecode=CABA08_3_3,Length=0.032456000,Units=km
new line.TR10130534 bus1=BMT6227139B.1.2.3,bus2=BMT171760801.1.2.3,Phases=3,Linecode=CABA08_3_3,Length=0.036803000,Units=km
new line.TR10130541 bus1=BMT171760801.1.2.3,bus2=BMT748931B.1.2.3,Phases=3,Linecode=CABA08_3_3,Length=0.036407000,Units=km
new line.TR10130548 bus1=BMT171760801.1.2.3,bus2=BMT17428749.1.2.3,Phases=3,Linecode=CAB108_3_3,Length=0.028325000,Units=km
new line.TR10130751 bus1=BMT6227447B.1.2.3,bus2=BMT745494B.1.2.3,Phases=3,Linecode=CABA08_3_3,Length=0.017808000,Units=km
new line.TR10130758 bus1=BMT6227447C.1.2.3,bus2=BMT745494C.1.2.3,Phases=3,Linecode=CAB104_3_3,Length=0.017808000,Units=km
new line.TR10133726 bus1=BMT6231941B.2,bus2=BMT6231948B.2,Phases=1,Linecode=CAB103_3_1,Length=0.044277000,Units=km
new line.TR10133733 bus1=BMT6231948B.2,bus2=BMT6231955B.2,Phases=1,Linecode=CAB103_3_1,Length=0.038018000,Units=km
new line.TR10133740 bus1=BMT6231955B.2,bus2=BMT6231962B.2,Phases=1,Linecode=CAB103_3_1,Length=0.072569000,Units=km
new line.TR10133747 bus1=BMT6231962B.2,bus2=BMT6231969B.2,Phases=1,Linecode=CAB103_3_1,Length=0.060547000,Units=km
new line.TR10133754 bus1=BMT6231969B.2,bus2=BMT6231976B.2,Phases=1,Linecode=CAB103_3_1,Length=0.044928000,Units=km
new line.TR10133761 bus1=BMT6231976B.2,bus2=BMT6231983B.2,Phases=1,Linecode=CAB103_3_1,Length=0.054412000,Units=km
new line.TR10133768 bus1=BMT6231983B.2,bus2=BMT6231990B.2,Phases=1,Linecode=CAB103_3_1,Length=0.046621000,Units=km
new line.TR10133775 bus1=BMT6231990B.2,bus2=BMT6231997B.2,Phases=1,Linecode=CAB103_3_1,Length=0.054090000,Units=km
new line.TR10133782 bus1=BMT6231997B.2,bus2=BMT6232004B.2,Phases=1,Linecode=CAB103_3_1,Length=0.094383000,Units=km
new line.TR10133789 bus1=BMT6232004B.2,bus2=BMT168836074.2,Phases=1,Linecode=CAB103_3_1,Length=0.052208000,Units=km
new line.TR10133796 bus1=BMT168836074.2,bus2=BMT6232018B.2,Phases=1,Linecode=CAB103_3_1,Length=0.065613000,Units=km
new line.TR10133803 bus1=BMT6232018B.2,bus2=BMT6232025B.2,Phases=1,Linecode=CAB103_3_1,Length=0.041682000,Units=km
new line.TR10133810 bus1=BMT6232025B.2,bus2=BMT168836077.2,Phases=1,Linecode=CAB103_3_1,Length=0.049047000,Units=km
new line.TR10133817 bus1=BMT168836077.2,bus2=BMT6232039B.2,Phases=1,Linecode=CAB103_3_1,Length=0.058471000,Units=km
new line.TR10133824 bus1=BMT168836077.2,bus2=BMT6232060B.2,Phases=1,Linecode=CAB103_3_1,Length=0.032253000,Units=km
new line.TR10133831 bus1=BMT6232039B.2,bus2=BMT6232046B.2,Phases=1,Linecode=CAB103_3_1,Length=0.047016000,Units=km
new line.TR10133838 bus1=BMT6232046B.2,bus2=BMT6232053B.2,Phases=1,Linecode=CAB103_3_1,Length=0.047682000,Units=km
new line.TR10264773 bus1=BMT172861139.2,bus2=BMT6462773B.2,Phases=1,Linecode=CAB202_3_1,Length=0.114543000,Units=km
new line.TR10264780 bus1=BMT6462773B.2,bus2=BMT172861140.2,Phases=1,Linecode=CAB202_3_1,Length=0.051669000,Units=km
new line.TR10275924 bus1=BMT172861125.2,bus2=BMT6480119B.2,Phases=1,Linecode=CAB202_3_1,Length=0.044278000,Units=km
new line.TR10275931 bus1=BMT6480119B.2,bus2=BMT172861126.2,Phases=1,Linecode=CAB202_3_1,Length=0.291146000,Units=km
new line.TR10276792 bus1=BMT150353652.3,bus2=BMT3450406B.3,Phases=1,Linecode=CAB202_3_1,Length=0.022364000,Units=km
new line.TR10276799 bus1=BMT150353652.3,bus2=BMT6481827B.3,Phases=1,Linecode=CAB103_3_1,Length=0.051622000,Units=km
new line.TR10276806 bus1=BMT6481827B.3,bus2=BMT6481834B.3,Phases=1,Linecode=CAB103_3_1,Length=0.065010000,Units=km
new line.TR10276813 bus1=BMT6481834B.3,bus2=BMT6481841B.3,Phases=1,Linecode=CAB103_3_1,Length=0.064415000,Units=km
new line.TR10276820 bus1=BMT6481841B.3,bus2=BMT6481848B.3,Phases=1,Linecode=CAB103_3_1,Length=0.067427000,Units=km
new line.TR10276827 bus1=BMT6481848B.3,bus2=BMT6481855B.3,Phases=1,Linecode=CAB103_3_1,Length=0.051116000,Units=km
new line.TR10276834 bus1=BMT6481855B.3,bus2=BMT6481862B.3,Phases=1,Linecode=CAB103_3_1,Length=0.073611000,Units=km
new line.TR10276841 bus1=BMT6481862B.3,bus2=BMT6481869B.3,Phases=1,Linecode=CAB103_3_1,Length=0.048556000,Units=km
new line.TR10276848 bus1=BMT6481869B.3,bus2=BMT6481890B.3,Phases=1,Linecode=CAB103_3_1,Length=0.062651000,Units=km
new line.TR10276876 bus1=BMT6481890B.3,bus2=BMT6481897B.3,Phases=1,Linecode=CAB103_3_1,Length=0.080243000,Units=km
new line.TR10276883 bus1=BMT6481897B.3,bus2=BMT6481904B.3,Phases=1,Linecode=CAB103_3_1,Length=0.060225000,Units=km
new line.TR10276890 bus1=BMT6481904B.3,bus2=BMT150353654.3,Phases=1,Linecode=CAB103_3_1,Length=0.060009000,Units=km
new line.TR10280355 bus1=BMT164637672.1,bus2=BMT164637673.1,Phases=1,Linecode=CAB202_3_1,Length=0.163077000,Units=km
new line.TR10280362 bus1=BMT164637672.1,bus2=BMT164637674.1,Phases=1,Linecode=CAB202_3_1,Length=0.140755000,Units=km
new line.TR10280726 bus1=BMT6488057B.3,bus2=BMT170108256.3,Phases=1,Linecode=CAB202_3_1,Length=0.079016000,Units=km
new line.TR10280733 bus1=BMT170108256.3,bus2=BMT6488071B.3,Phases=1,Linecode=CAB103_3_1,Length=0.041005000,Units=km
new line.TR10280740 bus1=BMT6488071B.3,bus2=BMT6488085B.3,Phases=1,Linecode=CAB103_3_1,Length=0.041017000,Units=km
new line.TR10280747 bus1=BMT6488085B.3,bus2=BMT6488141B.3,Phases=1,Linecode=CAB103_3_1,Length=0.044424000,Units=km
new line.TR10280775 bus1=BMT6488141B.3,bus2=BMT6488190B.3,Phases=1,Linecode=CAB103_3_1,Length=0.079633000,Units=km
new line.TR10280789 bus1=BMT6488169B.3,bus2=BMT170108257.3,Phases=1,Linecode=CAB103_3_1,Length=0.079186000,Units=km
new line.TR10280796 bus1=BMT6488176B.3,bus2=BMT6488169B.3,Phases=1,Linecode=CAB103_3_1,Length=0.059690000,Units=km
new line.TR10280803 bus1=BMT6488183B.3,bus2=BMT6488176B.3,Phases=1,Linecode=CAB103_3_1,Length=0.033291000,Units=km
new line.TR10280810 bus1=BMT6488190B.3,bus2=BMT6488183B.3,Phases=1,Linecode=CAB103_3_1,Length=0.095221000,Units=km
new line.TR10281510 bus1=BMT6489394B.2,bus2=BMT6489401B.2,Phases=1,Linecode=CAB103_3_1,Length=0.030237000,Units=km
new line.TR10281517 bus1=BMT6489401B.2,bus2=BMT6489408B.2,Phases=1,Linecode=CAB103_3_1,Length=0.049665000,Units=km
new line.TR10281524 bus1=BMT6489408B.2,bus2=BMT6489415B.2,Phases=1,Linecode=CAB103_3_1,Length=0.060415000,Units=km
new line.TR10281531 bus1=BMT6489415B.2,bus2=BMT6489429B.2,Phases=1,Linecode=CAB103_3_1,Length=0.064078000,Units=km
new line.TR10281545 bus1=BMT6489429B.2,bus2=BMT6489436B.2,Phases=1,Linecode=CAB103_3_1,Length=0.074070000,Units=km
new line.TR10281552 bus1=BMT6489436B.2,bus2=BMT6489464B.2,Phases=1,Linecode=CAB103_3_1,Length=0.055043000,Units=km
new line.TR10281580 bus1=BMT6489464B.2,bus2=BMT6489471B.2,Phases=1,Linecode=CAB103_3_1,Length=0.044828000,Units=km
new line.TR10281587 bus1=BMT6489471B.2,bus2=BMT169561453.2,Phases=1,Linecode=CAB103_3_1,Length=0.044694000,Units=km
new line.TR10282616 bus1=BMT6491228B.1,bus2=BMT171288369.1,Phases=1,Linecode=CAB202_3_1,Length=0.231399000,Units=km
new line.TR10440088 bus1=BMT171973338.2,bus2=BMT171973339.2,Phases=1,Linecode=CAB203_3_1,Length=0.013604000,Units=km
new line.TR10440165 bus1=BMT3761864B.2,bus2=BMT171973340.2,Phases=1,Linecode=CAB203_3_1,Length=0.036061000,Units=km
new line.TR10440172 bus1=BMT171973340.2,bus2=BMT6699597B.2,Phases=1,Linecode=CABA06_3_1,Length=0.016158000,Units=km
new line.TR10440179 bus1=BMT6699597B.2,bus2=BMT6699583B.2,Phases=1,Linecode=CABA06_3_1,Length=0.049827000,Units=km
new line.TR10440186 bus1=BMT6699583B.2,bus2=BMT6699562B.2,Phases=1,Linecode=CABA06_3_1,Length=0.064018000,Units=km
new line.TR10440200 bus1=BMT6699562B.2,bus2=BMT6699394B.2,Phases=1,Linecode=CABA06_3_1,Length=0.057810000,Units=km
new line.TR10440207 bus1=BMT6699394B.2,bus2=BMT171973341.2,Phases=1,Linecode=CABA06_3_1,Length=0.051873000,Units=km
new line.TR10464721 bus1=BMT165138615.3,bus2=BMT6726092B.3,Phases=1,Linecode=CAB103_3_1,Length=0.019213000,Units=km
new line.TR10464742 bus1=BMT6726092B.3,bus2=BMT165138616.3,Phases=1,Linecode=CAB103_3_1,Length=0.069039000,Units=km
new line.TR10133845 bus1=BMT6232053B.2,bus2=BMT6232172B.2,Phases=1,Linecode=CAB103_3_1,Length=0.078041000,Units=km
new line.TR10133852 bus1=BMT6232060B.2,bus2=BMT6232067B.2,Phases=1,Linecode=CAB103_3_1,Length=0.052160000,Units=km
new line.TR10133859 bus1=BMT6232067B.2,bus2=BMT6232116B.2,Phases=1,Linecode=CAB103_3_1,Length=0.033246000,Units=km
new line.TR10133866 bus1=BMT166967087.2,bus2=BMT166967088.2,Phases=1,Linecode=CAB103_3_1,Length=0.066491000,Units=km
new line.TR10133873 bus1=BMT166967086.2,bus2=BMT166967087.2,Phases=1,Linecode=CAB103_3_1,Length=0.011706000,Units=km
new line.TR10133880 bus1=BMT103771348.2,bus2=BMT6232137B.2,Phases=1,Linecode=CAB103_3_1,Length=0.052006000,Units=km
new line.TR10133887 bus1=BMT6232116B.2,bus2=BMT103771348.2,Phases=1,Linecode=CAB103_3_1,Length=0.016281000,Units=km
new line.TR10133894 bus1=BMT6232137B.2,bus2=BMT6232144B.2,Phases=1,Linecode=CAB103_3_1,Length=0.035019000,Units=km
new line.TR10133901 bus1=BMT6232144B.2,bus2=BMT168836084.2,Phases=1,Linecode=CAB103_3_1,Length=0.074634000,Units=km
new line.TR10133908 bus1=BMT6232172B.2,bus2=BMT6232179B.2,Phases=1,Linecode=CAB103_3_1,Length=0.075195000,Units=km
new line.TR10133915 bus1=BMT6232179B.2,bus2=BMT168836082.2,Phases=1,Linecode=CAB103_3_1,Length=0.013930000,Units=km
new line.TR10133922 bus1=BMT168836082.2,bus2=BMT6232193B.2,Phases=1,Linecode=CAB103_3_1,Length=0.044390000,Units=km
new line.TR10133929 bus1=BMT168836082.2,bus2=BMT6232263B.2,Phases=1,Linecode=CAB103_3_1,Length=0.054043000,Units=km
new line.TR10133936 bus1=BMT6232193B.2,bus2=BMT6232200B.2,Phases=1,Linecode=CAB103_3_1,Length=0.079709000,Units=km
new line.TR10133943 bus1=BMT6232200B.2,bus2=BMT6232207B.2,Phases=1,Linecode=CAB103_3_1,Length=0.011706000,Units=km
new line.TR10133950 bus1=BMT6232207B.2,bus2=BMT6232214B.2,Phases=1,Linecode=CAB103_3_1,Length=0.069822000,Units=km
new line.TR10133957 bus1=BMT6232214B.2,bus2=BMT6232221B.2,Phases=1,Linecode=CAB103_3_1,Length=0.024086000,Units=km
new line.TR10133964 bus1=BMT6232221B.2,bus2=BMT6232228B.2,Phases=1,Linecode=CAB103_3_1,Length=0.060215000,Units=km
new line.TR10133971 bus1=BMT6232228B.2,bus2=BMT6232235B.2,Phases=1,Linecode=CAB103_3_1,Length=0.048390000,Units=km
new line.TR10133978 bus1=BMT6232235B.2,bus2=BMT168836087.2,Phases=1,Linecode=CAB103_3_1,Length=0.037648000,Units=km
new line.TR10133985 bus1=BMT6232263B.2,bus2=BMT6232270B.2,Phases=1,Linecode=CAB103_3_1,Length=0.030153000,Units=km
new line.TR10133992 bus1=BMT6232270B.2,bus2=BMT6232277B.2,Phases=1,Linecode=CAB103_3_1,Length=0.046147000,Units=km
new line.TR10133999 bus1=BMT6232277B.2,bus2=BMT168836089.2,Phases=1,Linecode=CAB103_3_1,Length=0.074681000,Units=km
new line.TR10134006 bus1=BMT168836089.2,bus2=BMT6232291B.2,Phases=1,Linecode=CAB103_3_1,Length=0.041200000,Units=km
new line.TR10134013 bus1=BMT6232291B.2,bus2=BMT6232298B.2,Phases=1,Linecode=CAB103_3_1,Length=0.044017000,Units=km
new line.TR10134020 bus1=BMT6232298B.2,bus2=BMT168836092.2,Phases=1,Linecode=CAB103_3_1,Length=0.074339000,Units=km
new line.TR10134034 bus1=BMT151208359.2,bus2=BMT151208360.2,Phases=1,Linecode=CAB103_3_1,Length=0.024046000,Units=km
new line.TR10134041 bus1=BMT151208359.2,bus2=BMT6232396B.2,Phases=1,Linecode=CAB103_3_1,Length=0.055009000,Units=km
new line.TR10134048 bus1=BMT6232396B.2,bus2=BMT6232410B.2,Phases=1,Linecode=CAB103_3_1,Length=0.055009000,Units=km
new line.TR10134062 bus1=BMT6232410B.2,bus2=BMT151208361.2,Phases=1,Linecode=CAB103_3_1,Length=0.069825000,Units=km
new line.TR10134426 bus1=BMT6233173B.3,bus2=BMT168251493.3,Phases=1,Linecode=CAB202_3_1,Length=0.059144000,Units=km
new line.TR10134825 bus1=BMT150353679.2,bus2=BMT150353680.2,Phases=1,Linecode=CAB103_3_1,Length=0.039402000,Units=km
new line.TR10134832 bus1=BMT150353679.2,bus2=BMT150353681.2,Phases=1,Linecode=CAB202_3_1,Length=0.160177000,Units=km
new line.TR10501240 bus1=BMT168708438.2,bus2=BMT168708440.2,Phases=1,Linecode=CAB103_3_1,Length=0.049656000,Units=km
new line.TR10524683 bus1=BMT172125255.2,bus2=BMT6785032B.2,Phases=1,Linecode=CAB103_3_1,Length=0.075700000,Units=km
new line.TR10524690 bus1=BMT6785032B.2,bus2=BMT6785039B.2,Phases=1,Linecode=CAB103_3_1,Length=0.055766000,Units=km
new line.TR10524697 bus1=BMT6785039B.2,bus2=BMT6785046B.2,Phases=1,Linecode=CAB103_3_1,Length=0.073385000,Units=km
new line.TR10524704 bus1=BMT6785046B.2,bus2=BMT6785053B.2,Phases=1,Linecode=CAB103_3_1,Length=0.065803000,Units=km
new line.TR10524711 bus1=BMT6785053B.2,bus2=BMT172125256.2,Phases=1,Linecode=CAB103_3_1,Length=0.036074000,Units=km
new line.TR10524718 bus1=BMT172125256.2,bus2=BMT6785067B.2,Phases=1,Linecode=CAB103_3_1,Length=0.065560000,Units=km
new line.TR10524725 bus1=BMT6785067B.2,bus2=BMT6785074B.2,Phases=1,Linecode=CAB103_3_1,Length=0.059084000,Units=km
new line.TR10524732 bus1=BMT6785074B.2,bus2=BMT6785081B.2,Phases=1,Linecode=CAB103_3_1,Length=0.052399000,Units=km
new line.TR10524739 bus1=BMT6785081B.2,bus2=BMT6785088B.2,Phases=1,Linecode=CAB103_3_1,Length=0.072210000,Units=km
new line.TR10524753 bus1=BMT6785095B.2,bus2=BMT6785102B.2,Phases=1,Linecode=CAB103_3_1,Length=0.078928000,Units=km
new line.TR10524760 bus1=BMT6785102B.2,bus2=BMT6785109B.2,Phases=1,Linecode=CAB103_3_1,Length=0.073002000,Units=km
new line.TR10140488 bus1=BMT6244723B.1.2.3,bus2=BMT6244730B.1.2.3,Phases=3,Linecode=CAB108_3_3,Length=0.054138000,Units=km
new line.TR10140495 bus1=BMT6244730B.1.2.3,bus2=BMT162526843.1.2.3,Phases=3,Linecode=CAB108_3_3,Length=0.069329000,Units=km
new line.TR10140502 bus1=BMT6244744B.1.2.3,bus2=BMT6244723B.1.2.3,Phases=3,Linecode=CAB108_3_3,Length=0.082018000,Units=km
new line.TR10140628 bus1=BMT162526843.1.2.3,bus2=BMT6245031B.1.2.3,Phases=3,Linecode=CAB208_3_3,Length=0.113375000,Units=km
new line.TR10140712 bus1=BMT6245031B.1.2.3,bus2=BMT6245080B.1.2.3,Phases=3,Linecode=CAB208_3_3,Length=0.072812000,Units=km
new line.TR10140733 bus1=BMT6245080B.1.2.3,bus2=BMT162526844.1.2.3,Phases=3,Linecode=CAB208_3_3,Length=0.126197000,Units=km
new line.TR10148468 bus1=BMT103768394.1.2.3,bus2=BMT747762B.1.2.3,Phases=3,Linecode=CAB103_3_3,Length=0.023349000,Units=km
new line.TR10148475 bus1=BMT103768590.1.2.3,bus2=BMT103768597.1.2.3,Phases=3,Linecode=CAB902_4_3,Length=0.016495000,Units=km
new line.TR10171722 bus1=BMT102838780.1,bus2=BMT102838787.1,Phases=1,Linecode=CAB202_3_1,Length=0.260027000,Units=km
new line.TR10171729 bus1=BMT102838780.1,bus2=BMT6312476B.1,Phases=1,Linecode=CAB202_3_1,Length=0.469784000,Units=km
new line.TR10171743 bus1=BMT6312476B.1,bus2=BMT6312539B.1,Phases=1,Linecode=CAB202_3_1,Length=0.405046000,Units=km
new line.TR10171764 bus1=BMT6312539B.1,bus2=BMT102838794.1,Phases=1,Linecode=CAB202_3_1,Length=0.047769000,Units=km
new line.TR10417702 bus1=BMT102838661.1,bus2=BMT102838675.1,Phases=1,Linecode=CAB103_3_1,Length=0.038905000,Units=km
new line.TR10417723 bus1=BMT102838675.1,bus2=BMT6675293B.1,Phases=1,Linecode=CAB202_3_1,Length=0.068482000,Units=km
new line.TR10417737 bus1=BMT6675293B.1,bus2=BMT102838682.1,Phases=1,Linecode=CAB202_3_1,Length=0.148113000,Units=km
new line.TR1089621 bus1=BMT728722B.1,bus2=BMT728729B.1,Phases=1,Linecode=CAB102_3_1,Length=0.028165000,Units=km
new line.TR1089628 bus1=BMT728729B.1,bus2=BMT728736B.1,Phases=1,Linecode=CAB102_3_1,Length=0.032656000,Units=km
new line.TR1089649 bus1=BMT728736B.1,bus2=BMT728743B.1,Phases=1,Linecode=CAB102_3_1,Length=0.065807000,Units=km
new line.TR1089670 bus1=BMT728743B.1,bus2=BMT163825206.1,Phases=1,Linecode=CAB102_3_1,Length=0.058062000,Units=km
new line.TR1089691 bus1=BMT163825206.1,bus2=BMT728757B.1,Phases=1,Linecode=CAB102_3_1,Length=0.059491000,Units=km
new line.TR1089705 bus1=BMT728757B.1,bus2=BMT728764B.1,Phases=1,Linecode=CAB102_3_1,Length=0.058431000,Units=km
new line.TR1089719 bus1=BMT728764B.1,bus2=BMT728771B.1,Phases=1,Linecode=CAB102_3_1,Length=0.053019000,Units=km
...
