CemigDFeeders/CETU04/CETU04ChavesMT.dss
new line.CTR12377 bus1=BMT103771194.2,bus2=BMT166967062.2,Phases=1,LineCode=tieSwitch1,Length=0.001,Units=km,switch=T !numEQ 143097
new line.CTR139084 bus1=BMT103773462.1.2.3,bus2=BMT171152942.1.2.3,Phases=3,LineCode=tieSwitch,Length=0.001,Units=km,switch=T !numEQ 90658
new line.CTR139112 bus1=BMT103801784.1.2.3,bus2=BMT103801791.1.2.3,Phases=3,LineCode=tieSwitch,Length=0.001,Units=km,switch=T !numEQ 8075
new line.CTR139196 bus1=BMT103801889.1,bus2=BMT172688268.1,Phases=1,LineCode=tieSwitch1,Length=0.001,Units=km,switch=T !numEQ 8062
new line.CTR139301 bus1=BMT150354103.1.2.3,bus2=BMT165293144.1.2.3,Phases=3,LineCode=tieSwitch,Length=0.001,Units=km,switch=T !numEQ 263484
new line.CTR139329 bus1=BMT150354113.1,bus2=BMT150354132.1,Phases=1,LineCode=tieSwitch1,Length=0.001,Units=km,switch=T !numEQ 9765
new line.CTR139371 bus1=BMT150353251.1.2.3,bus2=BMT150353252.1.2.3,Phases=3,LineCode=tieSwitch,Length=0.001,Units=km,switch=T !numEQ 9096
new line.CTR139399 bus1=BMT150353280.1,bus2=BMT168593419.1,Phases=1,LineCode=tieSwitch1,Length=0.001,Units=km,switch=T !numEQ 90023
new line.CTR139427 bus1=BMT150353724.2,bus2=BMT163806539.2,Phases=1,LineCode=tieSwitch1,Length=0.001,Units=km,switch=T !numEQ 381668
new line.CTR139455 bus1=BMT150353596.1.2.3,bus2=BMT150353647.1.2.3,Phases=3,LineCode=tieSwitch,Length=0.001,Units=km,switch=T !numEQ 288867
new line.CTR139511 bus1=BMT157601113.1.2.3,bus2=BMT160806713.1.2.3,Phases=3,LineCode=tieSwitch,Length=0.001,Units=km,switch=T !numEQ 90053
new line.CTR139525 bus1=BMT150353383.1,bus2=BMT162017693.1,Phases=1,LineCode=tieSwitch1,Length=0.001,Units=km,switch=T !numEQ 8246
new line.CTR139581 bus1=BMT150353328.2,bus2=BMT158325915.2,Phases=1,LineCode=tieSwitch1,Length=0.001,Units=km,switch=T !numEQ 10121
new line.CTR139665 bus1=BMT150353321.1.2.3,bus2=BMT150353322.1.2.3,Phases=3,LineCode=tieSwitch,Length=0.001,Units=km,switch=T !numEQ 11030
new line.CTR178382 bus1=BMT103802036.1.2.3,bus2=BMT103802463.1.2.3,Phases=3,LineCode=tieSwitch,Length=0.001,Units=km,switch=T !numEQ 8074
new line.CTR178998 bus1=BMT150353201.3,bus2=BMT150353214.3,Phases=1,LineCode=tieSwitch1,Length=0.001,Units=km,switch=T !numEQ 139823
new line.CTR185256 bus1=BMT103772811.2,bus2=BMT166967103.2,Phases=1,LineCode=tieSwitch1,Length=0.001,Units=km,switch=T !numEQ 143095
new line.CTR185270 bus1=BMT150353594.1,bus2=BMT162975172.1,Phases=1,LineCode=tieSwitch1,Length=0.001,Units=km,switch=T !numEQ 143099
new line.CTR185963 bus1=BMT167598049.3,bus2=BMT167828602.3,Phases=1,LineCode=tieSwitch1,Length=0.001,Units=km,switch=T !numEQ 141217
new line.CTR193404 bus1=BMT150354172.1.2.3,bus2=BMT168168703.1.2.3,Phases=3,LineCode=tieSwitch,Length=0.001,Units=km,switch=T !numEQ 113940
new line.CTR223917 bus1=BMT150353330.1.2.3,bus2=BMT150353374.1.2.3,Phases=3,LineCode=tieSwitch,Length=0.001,Units=km,switch=T !numEQ 111880
new line.CTR246800 bus1=BMT102837100.1.2.3,bus2=BMT158752814.1.2.3,Phases=3,LineCode=tieSwitch,Length=0.001,Units=km,switch=T !numEQ 108136
new line.CTR247458 bus1=BMT103773840.1.2.3,bus2=BMT163760102.1.2.3,Phases=3,LineCode=tieSwitch,Length=0.001,Units=km,switch=T !numEQ 8804
new line.CTR247472 bus1=BMT103773973.2,bus2=BMT103774302.2,Phases=1,LineCode=tieSwitch1,Length=0.001,Units=km,switch=T !numEQ 11019
new line.CTR247486 bus1=BMT103774253.2,bus2=BMT103774274.2,Phases=1,LineCode=tieSwitch1,Length=0.001,Units=km,switch=T !numEQ 90467
new line.CTR247493 bus1=BMT103775128.1,bus2=BMT103775142.1,Phases=1,LineCode=tieSwitch1,Length=0.001,Units=km,switch=T !numEQ 9435
new line.CTR247591 bus1=BMT103769059.1.2.3,bus2=BMT167070833.1.2.3,Phases=3,LineCode=tieSwitch,Length=0.001,Units=km,switch=T !numEQ 285381
new line.CTR247619 bus1=BMT103769318.1,bus2=BMT164979608.1,Phases=1,LineCode=tieSwitch1,Length=0.001,Units=km,switch=T !numEQ 285410
new line.CTR247640 bus1=BMT103769577.1,bus2=BMT167817856.1,Phases=1,LineCode=tieSwitch1,Length=0.001,Units=km,switch=T !numEQ 376721
new line.CTR247654 bus1=BMT166342937.1.2.3,bus2=BMT166341351.1.2.3,Phases=3,LineCode=tieSwitch,Length=0.001,Units=km,switch=T !numEQ 7331
new line.CTR247682 bus1=BMT103769710.3,bus2=BMT166960647.3,Phases=1,LineCode=tieSwitch1,Length=0.001,Units=km,switch=T !numEQ 13549
new line.CTR247696 bus1=BMT103774386.1,bus2=BMT103775597.1,Phases=1,LineCode=tieSwitch1,Length=0.001,Units=km,switch=T !numEQ 7594
new line.CTR247710 bus1=BMT103766959.1.2.3,bus2=BMT103773427.1.2.3,Phases=3,LineCode=tieSwitch,Length=0.001,Units=km,switch=T !numEQ 90041
new line.CTR247724 bus1=BMT103767043.1.2.3,bus2=BMT99448617.1.2.3,Phases=3,LineCode=tieSwitch,Length=0.001,Units=km,switch=T !numEQ 194242
open line.CTR247724 term=1
new line.CTR247752 bus1=BMT103767057.1.2.3,bus2=BMT103773399.1.2.3,Phases=3,LineCode=tieSwitch,Length=0.001,Units=km,switch=T !numEQ 8876
new line.CTR247759 bus1=BMT103767071.1.2.3,bus2=BMT103767078.1.2.3,Phases=3,LineCode=tieSwitch,Length=0.001,Units=km,switch=T !numEQ 1613
new line.CTR247773 bus1=BMT103766987.1.2.3,bus2=BMT103767001.1.2.3,Phases=3,LineCode=tieSwitch,Length=0.001,Units=km,switch=T !numEQ 3596
new line.CTR247801 bus1=BMT103767274.3,bus2=BMT103773161.3,Phases=1,LineCode=tieSwitch1,Length=0.001,Units=km,switch=T !numEQ 90342
new line.CTR247815 bus1=BMT103767288.2,bus2=BMT103773133.2,Phases=1,LineCode=tieSwitch1,Length=0.001,Units=km,switch=T !numEQ 90340
new line.CTR247843 bus1=BMT103767652.1.2.3,bus2=BMT167612571.1.2.3,Phases=3,LineCode=tieSwitch,Length=0.001,Units=km,switch=T !numEQ 257106
new line.CTR259813 bus1=BMT103802120.3,bus2=BMT171110605.3,Phases=1,LineCode=tieSwitch1,Length=0.001,Units=km,switch=T !numEQ 112600
new line.CTR268248 bus1=BMT103774442.1,bus2=BMT120249747.1,Phases=1,LineCode=tieSwitch1,Length=0.001,Units=km,switch=T !numEQ 151077
new line.CTR282227 bus1=BMT103801924.3,bus2=BMT103801945.3,Phases=1,LineCode=tieSwitch1,Length=0.001,Units=km,switch=T !numEQ 8064
new line.CTR282486 bus1=BMT150354137.1.2.3,bus2=BMT150354139.1.2.3,Phases=3,LineCode=tieSwitch,Length=0.001,Units=km,switch=T !numEQ 13550
new line.CTR282619 bus1=BMT102838563.1,bus2=BMT102838864.1,Phases=1,LineCode=tieSwitch1,Length=0.001,Units=km,switch=T !numEQ 9367
new line.CTR137915 bus1=BMT99456422.3,bus2=BMT163710180.3,Phases=1,LineCode=tieSwitch1,Length=0.001,Units=km,switch=T !numEQ 11043
new line.CTR168554 bus1=BMT103801112.1.2.3,bus2=BMT103801119.1.2.3,Phases=3,LineCode=tieSwitch,Length=0.001,Units=km,switch=T !numEQ 9502
new line.CTR168869 bus1=BMT166967041.2,bus2=BMT103771145.2,Phases=1,LineCode=tieSwitch1,Length=0.001,Units=km,switch=T !numEQ 11004
new line.CTR187517 bus1=BMT150353432.3,bus2=BMT150353439.3,Phases=1,LineCode=tieSwitch1,Length=0.001,Units=km,switch=T !numEQ 147727
new line.CTR196000474 bus1=BMT2196000505.1.2.3,bus2=BMT2196000493.1.2.3,Phases=3,LineCode=tieSwitch,Length=0.001,Units=km,switch=T !numEQ 
new line.CTR196000502 bus1=BMT2180535611.1.2.3,bus2=BMT2196000505.1.2.3,Phases=3,LineCode=tieSwitch,Length=0.001,Units=km,switch=T !numEQ 
new line.CTR196000520 bus1=BMT2195999950.1.2.3,bus2=BMT2180535611.1.2.3,Phases=3,LineCode=tieSwitch,Length=0.001,Units=km,switch=T !numEQ 
new line.CTR196000564 bus1=BMT2180535613.1.2.3,bus2=BMT2196000565.1.2.3,Phases=3,LineCode=tieSwitch,Length=0.001,Units=km,switch=T !numEQ 
new line.CTR196000578 bus1=BMT2195999950.1.2.3,bus2=BMT2180535613.1.2.3,Phases=3,LineCode=tieSwitch,Length=0.001,Units=km,switch=T !numEQ 
new line.CTR196000604 bus1=BMT2180535615.1.2.3,bus2=BMT2196000605.1.2.3,Phases=3,LineCode=tieSwitch,Length=0.001,Units=km,switch=T !numEQ 
new line.CTR196000618 bus1=BMT2195999950.1.2.3,bus2=BMT2180535615.1.2.3,Phases=3,LineCode=tieSwitch,Length=0.001,Units=km,switch=T !numEQ 
new line.CTR196000644 bus1=BMT2180535616.1.2.3,bus2=BMT2196000645.1.2.3,Phases=3,LineCode=tieSwitch,Length=0.001,Units=km,switch=T !numEQ 
new line.CTR196000658 bus1=BMT2195999950.1.2.3,bus2=BMT2180535616.1.2.3,Phases=3,LineCode=tieSwitch,Length=0.001,Units=km,switch=T !numEQ 
new line.CTR196000684 bus1=BMT2196000685.1.2.3,bus2=BMT2180535614.1.2.3,Phases=3,LineCode=tieSwitch,Length=0.001,Units=km,switch=T !numEQ 
new line.CTR196000698 bus1=BMT2180535614.1.2.3,bus2=BMT2195999950.1.2.3,Phases=3,LineCode=tieSwitch,Length=0.001,Units=km,switch=T !numEQ 
new line.CTR196000710 bus1=BMT2196000565.1.2.3,bus2=BMT2196000711.1.2.3,Phases=3,LineCode=tieSwitch,Length=0.001,Units=km,switch=T !numEQ 
new line.CTR196000722 bus1=BMT2196000605.1.2.3,bus2=BMT2196000723.1.2.3,Phases=3,LineCode=tieSwitch,Length=0.001,Units=km,switch=T !numEQ 
new line.CTR196000734 bus1=BMT2196000645.1.2.3,bus2=BMT2196000735.1.2.3,Phases=3,LineCode=tieSwitch,Length=0.001,Units=km,switch=T !numEQ 
new line.CTR196000746 bus1=BMT2196000747.1.2.3,bus2=BMT2196000685.1.2.3,Phases=3,LineCode=tieSwitch,Length=0.001,Units=km,switch=T !numEQ 
new line.CTR196218 bus1=BMT150353393.1.2.3,bus2=BMT150353417.1.2.3,Phases=3,LineCode=tieSwitch,Length=0.001,Units=km,switch=T !numEQ 149804
new line.CTR221271 bus1=BMT103775429.1,bus2=BMT103775492.1,Phases=1,LineCode=tieSwitch1,Length=0.001,Units=km,switch=T !numEQ 90824
new line.CTR242299 bus1=BMT150353302.1.2.3,bus2=BMT150353309.1.2.3,Phases=3,LineCode=tieSwitch,Length=0.001,Units=km,switch=T !numEQ 8762
new line.CTR242313 bus1=BMT151623155.1.2.3,bus2=BMT150353188.1.2.3,Phases=3,LineCode=tieSwitch,Length=0.001,Units=km,switch=T !numEQ 9094
new line.CTR242327 bus1=BMT150353168.1.2.3,bus2=BMT165945465.1.2.3,Phases=3,LineCode=tieSwitch,Length=0.001,Units=km,switch=T !numEQ 7500
new line.CTR242341 bus1=BMT150354116.1.2.3,bus2=BMT150354122.1.2.3,Phases=3,LineCode=tieSwitch,Length=0.001,Units=km,switch=T !numEQ 90502
new line.CTR242411 bus1=BMT150353282.1.2.3,bus2=BMT150353283.1.2.3,Phases=3,LineCode=tieSwitch,Length=0.001,Units=km,switch=T !numEQ 9415
new line.CTR242453 bus1=BMT150353464.1.2.3,bus2=BMT165988409.1.2.3,Phases=3,LineCode=tieSwitch,Length=0.001,Units=km,switch=T !numEQ 90301
new line.CTR242467 bus1=BMT150353336.2,bus2=BMT150353453.2,Phases=1,LineCode=tieSwitch1,Length=0.001,Units=km,switch=T !numEQ 90671
new line.CTR242509 bus1=BMT150353957.1.2.3,bus2=BMT165160301.1.2.3,Phases=3,LineCode=tieSwitch,Length=0.001,Units=km,switch=T !numEQ 402382
new line.CTR242523 bus1=BMT150354015.2,bus2=BMT150354021.2,Phases=1,LineCode=tieSwitch1,Length=0.001,Units=km,switch=T !numEQ 90758
new line.CTR242537 bus1=BMT150353947.2,bus2=BMT158128681.2,Phases=1,LineCode=tieSwitch1,Length=0.001,Units=km,switch=T !numEQ 8774
new line.CTR242551 bus1=BMT150353260.1.2.3,bus2=BMT150353264.1.2.3,Phases=3,LineCode=tieSwitch,Length=0.001,Units=km,switch=T !numEQ 90765
new line.CTR242593 bus1=BMT150353509.1.2.3,bus2=BMT150353510.1.2.3,Phases=3,LineCode=tieSwitch,Length=0.001,Units=km,switch=T !numEQ 288186
new line.CTR242607 bus1=BMT150353516.2,bus2=BMT150353931.2,Phases=1,LineCode=tieSwitch1,Length=0.001,Units=km,switch=T !numEQ 288184
new line.CTR242677 bus1=BMT150354250.3,bus2=BMT150354251.3,Phases=1,LineCode=tieSwitch1,Length=0.001,Units=km,switch=T !numEQ 10083
new line.CTR242705 bus1=BMT150353140.1.2.3,bus2=BMT167729838.1.2.3,Phases=3,LineCode=tieSwitch,Length=0.001,Units=km,switch=T !numEQ 8889
new line.CTR242733 bus1=BMT150354186.2.3,bus2=BMT150354194.2.3,Phases=2,LineCode=tieSwitch,Length=0.001,Units=km,switch=T !numEQ 7516
new line.CTR263425 bus1=BMT150353801.3,bus2=BMT168251531.3,Phases=1,LineCode=tieSwitch1,Length=0.001,Units=km,switch=T !numEQ 125274
new line.CTR263859 bus1=BMT102838556.1,bus2=BMT102838934.1,Phases=1,LineCode=tieSwitch1,Length=0.001,Units=km,switch=T !numEQ 143119
new line.CTR288744 bus1=BMT167471377.1.2.3,bus2=BMT171185159.1.2.3,Phases=3,LineCode=tieSwitch,Length=0.001,Units=km,switch=T !numEQ 125510
new line.CTR28967 bus1=BMT168657433.1.2.3,bus2=BMT169449429.1.2.3,Phases=3,LineCode=tieSwitch,Length=0.001,Units=km,switch=T !numEQ 384407
new line.CTR289759 bus1=BMT103800804.1,bus2=BMT157318055.1,Phases=1,LineCode=tieSwitch1,Length=0.001,Units=km,switch=T !numEQ 90664
new line.CTR364463 bus1=BMT150353909.1.2.3,bus2=BMT160807386.1.2.3,Phases=3,LineCode=tieSwitch,Length=0.001,Units=km,switch=T !numEQ 10305
new line.CTR365723 bus1=BMT168168710.1.2.3,bus2=BMT150354043.1.2.3,Phases=3,LineCode=tieSwitch,Length=0.001,Units=km,switch=T !numEQ 7000
open line.CTR365723 term=1
new line.CTR365737 bus1=BMT150353102.1.2.3,bus2=BMT166852467.1.2.3,Phases=3,LineCode=tieSwitch,Length=0.001,Units=km,switch=T !numEQ 8881
new line.CTR41399 bus1=BMT103800769.1.2.3,bus2=BMT168011173.1.2.3,Phases=3,LineCode=tieSwitch,Length=0.001,Units=km,switch=T !numEQ 197161
new line.CTR514781 bus1=BMT103772153.2,bus2=BMT168708437.2,Phases=1,LineCode=tieSwitch1,Length=0.001,Units=km,switch=T !numEQ 9081
new line.CTR561695 bus1=BMT170533470.1,bus2=BMT170533573.1,Phases=1,LineCode=tieSwitch1,Length=0.001,Units=km,switch=T !numEQ 143098
new line.CTR561975 bus1=BMT99456429.1.2.3,bus2=BMT162980499.1.2.3,Phases=3,LineCode=tieSwitch,Length=0.001,Units=km,switch=T !numEQ 10049
new line.CTR562003 bus1=BMT99456639.1,bus2=BMT99456646.1,Phases=1,LineCode=tieSwitch1,Length=0.001,Units=km,switch=T !numEQ 90569
new line.CTR135115 bus1=BMT157033034.1.2.3,bus2=BMT3988923.1.2.3,Phases=3,LineCode=tieSwitch,Length=0.001,Units=km,switch=T !numEQ 90777
open line.CTR135115 term=1
new line.CTR135199 bus1=BMT103767841.1.2.3,bus2=BMT165299413.1.2.3,Phases=3,LineCode=tieSwitch,Length=0.001,Units=km,switch=T !numEQ 292784
new line.CTR135241 bus1=BMT163853450.1,bus2=BMT163853826.1,Phases=1,LineCode=tieSwitch1,Length=0.001,Units=km,switch=T !numEQ 285382
new line.CTR135304 bus1=BMT103766973.3,bus2=BMT103773413.3,Phases=1,LineCode=tieSwitch1,Length=0.001,Units=km,switch=T !numEQ 90343
new line.CTR135332 bus1=BMT103766945.1.2.3,bus2=BMT103773448.1.2.3,Phases=3,LineCode=tieSwitch,Length=0.001,Units=km,switch=T !numEQ 90040
new line.CTR14169 bus1=BMT103769598.3,bus2=BMT166960624.3,Phases=1,LineCode=tieSwitch1,Length=0.001,Units=km,switch=T !numEQ 146329
new line.CTR142416 bus1=BMT103768688.1.2.3,bus2=BMT125812864.1.2.3,Phases=3,LineCode=tieSwitch,Length=0.001,Units=km,switch=T !numEQ 285380
new line.CTR173951 bus1=BMT103802498.1,bus2=BMT167357132.1,Phases=1,LineCode=tieSwitch1,Length=0.001,Units=km,switch=T !numEQ 8117
new line.CTR181021 bus1=BMT150354170.1.2.3,bus2=BMT150354211.1.2.3,Phases=3,LineCode=tieSwitch,Length=0.001,Units=km,switch=T !numEQ 4212
new line.CTR181224 bus1=BMT103773987.3,bus2=BMT157407660.3,Phases=1,LineCode=tieSwitch1,Length=0.001,Units=km,switch=T !numEQ 381677
new line.CTR189883 bus1=BMT150353262.1.2.3,bus2=BMT165564373.1.2.3,Phases=3,LineCode=tieSwitch,Length=0.001,Units=km,switch=T !numEQ 150138
new line.CTR207649 bus1=BMT150353347.1.2.3,bus2=BMT157691017.1.2.3,Phases=3,LineCode=tieSwitch,Length=0.001,Units=km,switch=T !numEQ 8235
new line.CTR207775 bus1=BMT103801098.1.2.3,bus2=BMT103801105.1.2.3,Phases=3,LineCode=tieSwitch,Length=0.001,Units=km,switch=T !numEQ 9504
new line.CTR208685 bus1=BMT103801322.3,bus2=BMT163708658.3,Phases=1,LineCode=tieSwitch1,Length=0.001,Units=km,switch=T !numEQ 8116
new line.CTR244175 bus1=BMT102837296.2,bus2=BMT171579781.2,Phases=1,LineCode=tieSwitch1,Length=0.001,Units=km,switch=T !numEQ 3518
new line.CTR244553 bus1=BMT102841629.1.2.3,bus2=BMT102841650.1.2.3,Phases=3,LineCode=tieSwitch,Length=0.001,Units=km,switch=T !numEQ 8174
new line.CTR271307 bus1=BMT103768877.3,bus2=BMT120822956.3,Phases=1,LineCode=tieSwitch1,Length=0.001,Units=km,switch=T !numEQ 143118
new line.CTR271468 bus1=BMT103803268.3,bus2=BMT138697190.3,Phases=1,LineCode=tieSwitch1,Length=0.001,Units=km,switch=T !numEQ 308058
new line.CTR271517 bus1=BMT103773826.1.2.3,bus2=BMT103774330.1.2.3,Phases=3,LineCode=tieSwitch,Length=0.001,Units=km,switch=T !numEQ 8033
new line.CTR283515 bus1=BMT150353615.3,bus2=BMT150353644.3,Phases=1,LineCode=tieSwitch1,Length=0.001,Units=km,switch=T !numEQ 288860
new line.CTR283991 bus1=BMT150354059.1.2.3,bus2=BMT162998013.1.2.3,Phases=3,LineCode=tieSwitch,Length=0.001,Units=km,switch=T !numEQ 7010
new line.CTR300154 bus1=BMT150354174.1.2.3,bus2=BMT154562372.1.2.3,Phases=3,LineCode=tieSwitch,Length=0.001,Units=km,switch=T !numEQ 10159
new line.CTR300581 bus1=BMT102838108.1,bus2=BMT102838458.1,Phases=1,LineCode=tieSwitch1,Length=0.001,Units=km,switch=T !numEQ 7675
new line.CTR300868 bus1=BMT103801623.1.2.3,bus2=BMT162492281.1.2.3,Phases=3,LineCode=tieSwitch,Length=0.001,Units=km,switch=T !numEQ 14337
new line.CTR315715 bus1=BMT150353376.1.2.3,bus2=BMT150353377.1.2.3,Phases=3,LineCode=tieSwitch,Length=0.001,Units=km,switch=T !numEQ 111881
new line.CTR316870 bus1=BMT103800867.1.2.3,bus2=BMT103800881.1.2.3,Phases=3,LineCode=tieSwitch,Length=0.001,Units=km,switch=T !numEQ 112103
new line.CTR332109 bus1=BMT102837303.1.2.3,bus2=BMT152846988.1.2.3,Phases=3,LineCode=tieSwitch,Length=0.001,Units=km,switch=T !numEQ 9028
new line.CTR347187 bus1=BMT103801812.3,bus2=BMT103802666.3,Phases=1,LineCode=tieSwitch1,Length=0.001,Units=km,switch=T !numEQ 14339
new line.CTR361831 bus1=BMT150353246.1.2.3,bus2=BMT150353247.1.2.3,Phases=3,LineCode=tieSwitch,Length=0.001,Units=km,switch=T !numEQ 7265
new line.CTR361943 bus1=BMT149089314.1.2.3,bus2=BMT103801007.1.2.3,Phases=3,LineCode=tieSwitch,Length=0.001,Units=km,switch=T !numEQ 106198
new line.CTR362678 bus1=BMT167329155.1.2.3,bus2=BMT167827706.1.2.3,Phases=3,LineCode=tieSwitch,Length=0.001,Units=km,switch=T !numEQ 149108
new line.CTR363301 bus1=BMT102837912.1,bus2=BMT160446331.1,Phases=1,LineCode=tieSwitch1,Length=0.001,Units=km,switch=T !numEQ 137685
new line.CTR363483 bus1=BMT103767834.1.2.3,bus2=BMT170161901.1.2.3,Phases=3,LineCode=tieSwitch,Length=0.001,Units=km,switch=T !numEQ 257103
new line.CTR499843 bus1=BMT103768394.1.2.3,bus2=BMT103768590.1.2.3,Phases=3,LineCode=tieSwitch,Length=0.001,Units=km,switch=T !numEQ 202329
new line.CTR501453 bus1=BMT99456849.1.2.3,bus2=BMT99456856.1.2.3,Phases=3,LineCode=tieSwitch,Length=0.001,Units=km,switch=T !numEQ 197159
new line.CTR501460 bus1=BMT103766875.1.2.3,bus2=BMT103773749.1.2.3,Phases=3,LineCode=tieSwitch,Length=0.001,Units=km,switch=T !numEQ 199722
new line.CTR501467 bus1=BMT138322333.1.2.3,bus2=BMT16387065.1.2.3,Phases=3,LineCode=tieSwitch,Length=0.001,Units=km,switch=T !numEQ 199723
open line.CTR501467 term=1
new line.CTR501474 bus1=BMT99456884.1.2.3,bus2=BMT138322312.1.2.3,Phases=3,LineCode=tieSwitch,Length=0.001,Units=km,switch=T !numEQ 199724
new line.CTR524735 bus1=BMT103769073.1,bus2=BMT153122450.1,Phases=1,LineCode=tieSwitch1,Length=0.001,Units=km,switch=T !numEQ 149518
new line.CTR524763 bus1=BMT150353281.1.2.3,bus2=BMT150353498.1.2.3,Phases=3,LineCode=tieSwitch,Length=0.001,Units=km,switch=T !numEQ 149519
new line.CTR555409 bus1=BMT150353671.2,bus2=BMT150353675.2,Phases=1,LineCode=tieSwitch1,Length=0.001,Units=km,switch=T !numEQ 101100
new line.CTR603408 bus1=BMT168239148.1.2.3,bus2=BMT168239157.1.2.3,Phases=3,LineCode=tieSwitch,Length=0.001,Units=km,switch=T !numEQ 276431
new line.CTR60369 bus1=BMT103801042.3,bus2=BMT171143564.3,Phases=1,LineCode=tieSwitch1,Length=0.001,Units=km,switch=T !numEQ 377295
new line.CTR60579 bus1=BMT99457087.1.2.3,bus2=BMT99457122.1.2.3,Phases=3,LineCode=tieSwitch,Length=0.001,Units=km,switch=T !numEQ 112528
new line.CTR627824 bus1=BMT102838717.1,bus2=BMT102838731.1,Phases=1,LineCode=tieSwitch1,Length=0.001,Units=km,switch=T !numEQ 91020
new line.CTR107045 bus1=BMT157033032.1.2.3,bus2=BMT3988839.1.2.3,Phases=3,LineCode=tieSwitch,Length=0.001,Units=km,switch=T !numEQ 90775
open line.CTR107045 term=1
new line.CTR14127 bus1=BMT103775219.1,bus2=BMT103775289.1,Phases=1,LineCode=tieSwitch1,Length=0.001,Units=km,switch=T !numEQ 147685
new line.CTR16031 bus1=BMT170631591.1.2.3,bus2=BMT103771950.1.2.3,Phases=3,LineCode=tieSwitch,Length=0.001,Units=km,switch=T !numEQ 226322
new line.CTR175911 bus1=BMT103767435.1.2.3,bus2=BMT103767512.1.2.3,Phases=3,LineCode=tieSwitch,Length=0.001,Units=km,switch=T !numEQ 147821
new line.CTR182904 bus1=BMT150353185.3,bus2=BMT160135052.3,Phases=1,LineCode=tieSwitch1,Length=0.001,Units=km,switch=T !numEQ 10464
new line.CTR183254 bus1=BMT103769815.3,bus2=BMT166960756.3,Phases=1,LineCode=tieSwitch1,Length=0.001,Units=km,switch=T !numEQ 11014
new line.CTR196659 bus1=BMT161048165.3,bus2=BMT167137959.3,Phases=1,LineCode=tieSwitch1,Length=0.001,Units=km,switch=T !numEQ 148314
new line.CTR196764 bus1=BMT150353714.2,bus2=BMT150353842.2,Phases=1,LineCode=tieSwitch1,Length=0.001,Units=km,switch=T !numEQ 381666
new line.CTR206193 bus1=BMT151208325.3,bus2=BMT163267202.3,Phases=1,LineCode=tieSwitch1,Length=0.001,Units=km,switch=T !numEQ 164091
new line.CTR207285 bus1=BMT103768184.1.2.3,bus2=BMT150342322.1.2.3,Phases=3,LineCode=tieSwitch,Length=0.001,Units=km,switch=T !numEQ 10345
new line.CTR25299 bus1=BMT150353100.1.2.3,bus2=BMT150353101.1.2.3,Phases=3,LineCode=tieSwitch,Length=0.001,Units=km,switch=T !numEQ 8781
open line.CTR25299 term=1
new line.CTR274660 bus1=BMT103772139.2,bus2=BMT168708492.2,Phases=1,LineCode=tieSwitch1,Length=0.001,Units=km,switch=T !numEQ 9032
new line.CTR297753 bus1=BMT150354076.1,bus2=BMT150354078.1,Phases=1,LineCode=tieSwitch1,Length=0.001,Units=km,switch=T !numEQ 3579
new line.CTR317850 bus1=BMT103766910.1.2.3,bus2=BMT156554233.1.2.3,Phases=3,LineCode=tieSwitch,Length=0.001,Units=km,switch=T !numEQ 3657
new line.CTR317878 bus1=BMT103768163.1.2.3,bus2=BMT152709451.1.2.3,Phases=3,LineCode=tieSwitch,Length=0.001,Units=km,switch=T !numEQ 8836
new line.CTR317906 bus1=BMT159480972.1.2.3,bus2=BMT159481537.1.2.3,Phases=3,LineCode=tieSwitch,Length=0.001,Units=km,switch=T !numEQ 90831
new line.CTR317934 bus1=BMT103767295.1.2.3,bus2=BMT171411366.1.2.3,Phases=3,LineCode=tieSwitch,Length=0.001,Units=km,switch=T !numEQ 90518
new line.CTR317976 bus1=BMT103769612.2,bus2=BMT170101221.2,Phases=1,LineCode=tieSwitch1,Length=0.001,Units=km,switch=T !numEQ 276278
new line.CTR317990 bus1=BMT103769689.3,bus2=BMT166960637.3,Phases=1,LineCode=tieSwitch1,Length=0.001,Units=km,switch=T !numEQ 9657
new line.CTR318004 bus1=BMT168138218.3,bus2=BMT103769703.3,Phases=1,LineCode=tieSwitch1,Length=0.001,Units=km,switch=T !numEQ 9611
new line.CTR318088 bus1=BMT103767246.1.2.3,bus2=BMT152710022.1.2.3,Phases=3,LineCode=tieSwitch,Length=0.001,Units=km,switch=T !numEQ 12381
new line.CTR318648 bus1=BMT162998019.1.2.3,bus2=BMT162998020.1.2.3,Phases=3,LineCode=tieSwitch,Length=0.001,Units=km,switch=T !numEQ 14341
new line.CTR318928 bus1=BMT150353299.1.2.3,bus2=BMT152139281.1.2.3,Phases=3,LineCode=tieSwitch,Length=0.001,Units=km,switch=T !numEQ 8848
new line.CTR335630 bus1=BMT103801777.3,bus2=BMT103802722.3,Phases=1,LineCode=tieSwitch1,Length=0.001,Units=km,switch=T !numEQ 90651
new line.CTR336204 bus1=BMT103770879.2,bus2=BMT166967020.2,Phases=1,LineCode=tieSwitch1,Length=0.001,Units=km,switch=T !numEQ 147626
new line.CTR336554 bus1=BMT150353152.1.2.3,bus2=BMT150354165.1.2.3,Phases=3,LineCode=tieSwitch,Length=0.001,Units=km,switch=T !numEQ 130139
new line.CTR369832 bus1=BMT150353985.1,bus2=BMT164637662.1,Phases=1,LineCode=tieSwitch1,Length=0.001,Units=km,switch=T !numEQ 146332
new line.CTR370147 bus1=BMT103803149.3,bus2=BMT103803170.3,Phases=1,LineCode=tieSwitch1,Length=0.001,Units=km,switch=T !numEQ 146330
new line.CTR496686 bus1=BMT103771313.2,bus2=BMT168836071.2,Phases=1,LineCode=tieSwitch1,Length=0.001,Units=km,switch=T !numEQ 197477
new line.CTR497337 bus1=BMT160755411.1.2.3,bus2=BMT16997682.1.2.3,Phases=3,LineCode=tieSwitch,Length=0.001,Units=km,switch=T !numEQ 199740
open line.CTR497337 term=1
new line.CTR520297 bus1=BMT150354064.1,bus2=BMT150354143.1,Phases=1,LineCode=tieSwitch1,Length=0.001,Units=km,switch=T !numEQ 151338
new line.CTR522579 bus1=BMT102837009.1.2.3,bus2=BMT173046759.1.2.3,Phases=3,LineCode=tieSwitch,Length=0.001,Units=km,switch=T !numEQ 7370
new line.CTR54825 bus1=BMT102837226.1,bus2=BMT170481729.1,Phases=1,LineCode=tieSwitch1,Length=0.001,Units=km,switch=T !numEQ 90994
new line.CTR550915 bus1=BMT103767106.2,bus2=BMT103767113.2,Phases=1,LineCode=tieSwitch1,Length=0.001,Units=km,switch=T !numEQ 6884
new line.CTR596156 bus1=BMT103801154.1.2.3,bus2=BMT103801161.1.2.3,Phases=3,LineCode=tieSwitch,Length=0.001,Units=km,switch=T !numEQ 131681
new line.CTR618822 bus1=BMT103767099.1.2.3,bus2=BMT173158189.1.2.3,Phases=3,LineCode=tieSwitch,Length=0.001,Units=km,switch=T !numEQ 9131
new line.CTR641362 bus1=BMT103800713.1.2.3,bus2=BMT157033030.1.2.3,Phases=3,LineCode=tieSwitch,Length=0.001,Units=km,switch=T !numEQ 90772
new line.CTR641460 bus1=BMT103802043.3,bus2=BMT166360145.3,Phases=1,LineCode=tieSwitch1,Length=0.001,Units=km,switch=T !numEQ 8072
new line.CTR641488 bus1=BMT103802778.3,bus2=BMT163731195.3,Phases=1,LineCode=tieSwitch1,Length=0.001,Units=km,switch=T !numEQ 90583
new line.CTR641516 bus1=BMT103803604.3,bus2=BMT167348919.3,Phases=1,LineCode=tieSwitch1,Length=0.001,Units=km,switch=T !numEQ 90505
new line.CTR641558 bus1=BMT150353240.1.2.3,bus2=BMT150353244.1.2.3,Phases=3,LineCode=tieSwitch,Length=0.001,Units=km,switch=T !numEQ 9095
new line.CTR641586 bus1=BMT150353249.1.2.3,bus2=BMT150353941.1.2.3,Phases=3,LineCode=tieSwitch,Length=0.001,Units=km,switch=T !numEQ 7259
new line.CTR641614 bus1=BMT150353946.2,bus2=BMT163712435.2,Phases=1,LineCode=tieSwitch1,Length=0.001,Units=km,switch=T !numEQ 8769
new line.CTR641642 bus1=BMT150353953.1.2.3,bus2=BMT152182161.1.2.3,Phases=3,LineCode=tieSwitch,Length=0.001,Units=km,switch=T !numEQ 9346
new line.CTR641824 bus1=BMT150353301.1.2.3,bus2=BMT168297712.1.2.3,Phases=3,LineCode=tieSwitch,Length=0.001,Units=km,switch=T !numEQ 8768
new line.CTR112491 bus1=BMT103772244.2,bus2=BMT168708449.2,Phases=1,LineCode=tieSwitch1,Length=0.001,Units=km,switch=T !numEQ 90227
new line.CTR118875 bus1=BMT103773924.1.2.3,bus2=BMT172959876.1.2.3,Phases=3,LineCode=tieSwitch,Length=0.001,Units=km,switch=T !numEQ 137653
new line.CTR179117 bus1=BMT103767449.1.2.3,bus2=BMT103773119.1.2.3,Phases=3,LineCode=tieSwitch,Length=0.001,Units=km,switch=T !numEQ 143832
new line.CTR193789 bus1=BMT150353312.1.2.3,bus2=BMT150353318.1.2.3,Phases=3,LineCode=tieSwitch,Length=0.001,Units=km,switch=T !numEQ 11029
new line.CTR193803 bus1=BMT150353300.1.2.3,bus2=BMT150353303.1.2.3,Phases=3,LineCode=tieSwitch,Length=0.001,Units=km,switch=T !numEQ 8255
new line.CTR193817 bus1=BMT150353296.1.2.3,bus2=BMT150353494.1.2.3,Phases=3,LineCode=tieSwitch,Length=0.001,Units=km,switch=T !numEQ 141431
new line.CTR199256 bus1=BMT171159551.1.2.3,bus2=BMT103767568.1.2.3,Phases=3,LineCode=tieSwitch,Length=0.001,Units=km,switch=T !numEQ 285376
new line.CTR199802 bus1=BMT150353963.2,bus2=BMT164292655.2,Phases=1,LineCode=tieSwitch1,Length=0.001,Units=km,switch=T !numEQ 151395
new line.CTR210575 bus1=BMT103801903.3,bus2=BMT103802582.3,Phases=1,LineCode=tieSwitch1,Length=0.001,Units=km,switch=T !numEQ 8063
new line.CTR210659 bus1=BMT150353692.3,bus2=BMT169383839.3,Phases=1,LineCode=tieSwitch1,Length=0.001,Units=km,switch=T !numEQ 290401
new line.CTR230406 bus1=BMT102838584.1,bus2=BMT102838829.1,Phases=1,LineCode=tieSwitch1,Length=0.001,Units=km,switch=T !numEQ 9475
new line.CTR231176 bus1=BMT150353764.2,bus2=BMT160703337.2,Phases=1,LineCode=tieSwitch1,Length=0.001,Units=km,switch=T !numEQ 107217
new line.CTR242747 bus1=BMT150353154.1.2.3,bus2=BMT172328734.1.2.3,Phases=3,LineCode=tieSwitch,Length=0.001,Units=km,switch=T !numEQ 6989
new line.CTR242761 bus1=BMT150353163.1.2.3,bus2=BMT150354039.1.2.3,Phases=3,LineCode=tieSwitch,Length=0.001,Units=km,switch=T !numEQ 6990
new line.CTR242775 bus1=BMT150354048.1.2.3,bus2=BMT150354156.1.2.3,Phases=3,LineCode=tieSwitch,Length=0.001,Units=km,switch=T !numEQ 90322
new line.CTR242789 bus1=BMT150354049.1.2.3,bus2=BMT150354153.1.2.3,Phases=3,LineCode=tieSwitch,Length=0.001,Units=km,switch=T !numEQ 90321
new line.CTR242803 bus1=BMT150354052.1.2.3,bus2=BMT150354147.1.2.3,Phases=3,LineCode=tieSwitch,Length=0.001,Units=km,switch=T !numEQ 7002
new line.CTR242810 bus1=BMT103801581.1.2.3,bus2=BMT135184681.1.2.3,Phases=3,LineCode=tieSwitch,Length=0.001,Units=km,switch=T !numEQ 8034
new line.CTR242824 bus1=BMT103801616.3,bus2=BMT103803142.3,Phases=1,LineCode=tieSwitch1,Length=0.001,Units=km,switch=T !numEQ 8035
new line.CTR242838 bus1=BMT103801644.3,bus2=BMT103803051.3,Phases=1,LineCode=tieSwitch1,Length=0.001,Units=km,switch=T !numEQ 8673
new line.CTR242852 bus1=BMT103801665.1,bus2=BMT103801693.1,Phases=1,LineCode=tieSwitch1,Length=0.001,Units=km,switch=T !numEQ 8047
new line.CTR242866 bus1=BMT103801735.2,bus2=BMT103803037.2,Phases=1,LineCode=tieSwitch1,Length=0.001,Units=km,switch=T !numEQ 8052
new line.CTR242880 bus1=BMT103801882.3,bus2=BMT173098280.3,Phases=1,LineCode=tieSwitch1,Length=0.001,Units=km,switch=T !numEQ 324470
new line.CTR242922 bus1=BMT103801980.3,bus2=BMT103802568.3,Phases=1,LineCode=tieSwitch1,Length=0.001,Units=km,switch=T !numEQ 8066
new line.CTR242943 bus1=BMT103801994.1,bus2=BMT103802477.1,Phases=1,LineCode=tieSwitch1,Length=0.001,Units=km,switch=T !numEQ 8071
new line.CTR243055 bus1=BMT99448316.1.2.3,bus2=BMT156673453.1.2.3,Phases=3,LineCode=tieSwitch,Length=0.001,Units=km,switch=T !numEQ 90773
new line.CTR243069 bus1=BMT99456870.1.2.3,bus2=BMT99456877.1.2.3,Phases=3,LineCode=tieSwitch,Length=0.001,Units=km,switch=T !numEQ 197160
open line.CTR243069 term=1
new line.CTR243622 bus1=BMT102838612.1,bus2=BMT102838619.1,Phases=1,LineCode=tieSwitch1,Length=0.001,Units=km,switch=T !numEQ 9368
new line.CTR254472 bus1=BMT103774358.1.2.3,bus2=BMT103774365.1.2.3,Phases=3,LineCode=tieSwitch,Length=0.001,Units=km,switch=T !numEQ 10354
new line.CTR265959 bus1=BMT103767064.1.2.3,bus2=BMT103773385.1.2.3,Phases=3,LineCode=tieSwitch,Length=0.001,Units=km,switch=T !numEQ 8854
new line.CTR265973 bus1=BMT103767029.1.2.3,bus2=BMT103767050.1.2.3,Phases=3,LineCode=tieSwitch,Length=0.001,Units=km,switch=T !numEQ 90043
new line.CTR277369 bus1=BMT103773266.1,bus2=BMT103773308.1,Phases=1,LineCode=tieSwitch1,Length=0.001,Units=km,switch=T !numEQ 137498
new line.CTR323135 bus1=BMT150353762.2,bus2=BMT150353776.2,Phases=1,LineCode=tieSwitch1,Length=0.001,Units=km,switch=T !numEQ 110342
new line.CTR339935 bus1=BMT103801931.1.2.3,bus2=BMT103801938.1.2.3,Phases=3,LineCode=tieSwitch,Length=0.001,Units=km,switch=T !numEQ 8065
new line.CTR341426 bus1=BMT150353095.1.2.3,bus2=BMT150354253.1.2.3,Phases=3,LineCode=tieSwitch,Length=0.001,Units=km,switch=T !numEQ 8887
new line.CTR341657 bus1=BMT99456583.1,bus2=BMT99456632.1,Phases=1,LineCode=tieSwitch1,Length=0.001,Units=km,switch=T !numEQ 4357
new line.CTR35981 bus1=BMT102837093.1.2.3,bus2=BMT102837086.1.2.3,Phases=3,LineCode=tieSwitch,Length=0.001,Units=km,switch=T !numEQ 90147
new line.CTR360480 bus1=BMT103774750.3,bus2=BMT167478226.3,Phases=1,LineCode=tieSwitch1,Length=0.001,Units=km,switch=T !numEQ 111972
new line.CTR361145 bus1=BMT103801987.2,bus2=BMT160900733.2,Phases=1,LineCode=tieSwitch1,Length=0.001,Units=km,switch=T !numEQ 8069
new line.CTR510217 bus1=BMT99456926.1.2.3,bus2=BMT167469485.1.2.3,Phases=3,LineCode=tieSwitch,Length=0.001,Units=km,switch=T !numEQ 199725
new line.CTR510441 bus1=BMT99457031.1.2.3,bus2=BMT99457038.1.2.3,Phases=3,LineCode=tieSwitch,Length=0.001,Units=km,switch=T !numEQ 199738
new line.CTR557873 bus1=BMT103800895.1.2.3,bus2=BMT149089301.1.2.3,Phases=3,LineCode=tieSwitch,Length=0.001,Units=km,switch=T !numEQ 199734
new line.CTR58563 bus1=BMT150353284.1.2.3,bus2=BMT150353285.1.2.3,Phases=3,LineCode=tieSwitch,Length=0.001,Units=km,switch=T !numEQ 7330
new line.CTR610541 bus1=BMT102837667.3,bus2=BMT167501335.3,Phases=1,LineCode=tieSwitch1,Length=0.001,Units=km,switch=T !numEQ 126752
new line.CTR637400 bus1=BMT103768114.1.2.3,bus2=BMT169074114.1.2.3,Phases=3,LineCode=tieSwitch,Length=0.001,Units=km,switch=T !numEQ 255615
new line.CTR118350 bus1=BMT157691041.1.2.3,bus2=BMT150353408.1.2.3,Phases=3,LineCode=tieSwitch,Length=0.001,Units=km,switch=T !numEQ 7123
new line.CTR138629 bus1=BMT102838542.1,bus2=BMT158235129.1,Phases=1,LineCode=tieSwitch1,Length=0.001,Units=km,switch=T !numEQ 9476
new line.CTR170787 bus1=BMT103767358.1.2.3,bus2=BMT103767372.1.2.3,Phases=3,LineCode=tieSwitch,Length=0.001,Units=km,switch=T !numEQ 9830
new line.CTR195343 bus1=BMT103801742.1.2.3,bus2=BMT103802995.1.2.3,Phases=3,LineCode=tieSwitch,Length=0.001,Units=km,switch=T !numEQ 8059
new line.CTR195385 bus1=BMT103774519.1,bus2=BMT157847560.1,Phases=1,LineCode=tieSwitch1,Length=0.001,Units=km,switch=T !numEQ 10376
new line.CTR195399 bus1=BMT103774064.1,bus2=BMT103774085.1,Phases=1,LineCode=tieSwitch1,Length=0.001,Units=km,switch=T !numEQ 2897
new line.CTR195413 bus1=BMT162492284.1.2.3,bus2=BMT103801679.1.2.3,Phases=3,LineCode=tieSwitch,Length=0.001,Units=km,switch=T !numEQ 8048
new line.CTR195665 bus1=BMT103768079.1.2.3,bus2=BMT103768338.1.2.3,Phases=3,LineCode=tieSwitch,Length=0.001,Units=km,switch=T !numEQ 128887
new line.CTR205297 bus1=BMT103775450.1,bus2=BMT103775506.1,Phases=1,LineCode=tieSwitch1,Length=0.001,Units=km,switch=T !numEQ 149509
new line.CTR215384 bus1=BMT103774057.1.2.3,bus2=BMT103774071.1.2.3,Phases=3,LineCode=tieSwitch,Length=0.001,Units=km,switch=T !numEQ 136743
new line.CTR215552 bus1=BMT103774393.1,bus2=BMT103775583.1,Phases=1,LineCode=tieSwitch1,Length=0.001,Units=km,switch=T !numEQ 8977
new line.CTR215664 bus1=BMT103774400.1.2.3,bus2=BMT167477920.1.2.3,Phases=3,LineCode=tieSwitch,Length=0.001,Units=km,switch=T !numEQ 10374
new line.CTR216273 bus1=BMT103773616.2,bus2=BMT103773623.2,Phases=1,LineCode=tieSwitch1,Length=0.001,Units=km,switch=T !numEQ 8146
new line.CTR226850 bus1=BMT150353259.2,bus2=BMT150353938.2,Phases=1,LineCode=tieSwitch1,Length=0.001,Units=km,switch=T !numEQ 6369
new line.CTR226892 bus1=BMT103774771.2,bus2=BMT169551805.2,Phases=1,LineCode=tieSwitch1,Length=0.001,Units=km,switch=T !numEQ 9261
new line.CTR272868 bus1=BMT158752816.1.2.3,bus2=BMT90564238.1.2.3,Phases=3,LineCode=tieSwitch,Length=0.001,Units=km,switch=T !numEQ 108137
new line.CTR273456 bus1=BMT103767281.3,bus2=BMT103773147.3,Phases=1,LineCode=tieSwitch1,Length=0.001,Units=km,switch=T !numEQ 90341
new line.CTR327580 bus1=BMT151208331.1.2.3,bus2=BMT151208380.1.2.3,Phases=3,LineCode=tieSwitch,Length=0.001,Units=km,switch=T !numEQ 122776
new line.CTR329064 bus1=BMT150354158.1.2.3,bus2=BMT150354159.1.2.3,Phases=3,LineCode=tieSwitch,Length=0.001,Units=km,switch=T !numEQ 151398
new line.CTR341860 bus1=BMT150353722.2,bus2=BMT150353840.2,Phases=1,LineCode=tieSwitch1,Length=0.001,Units=km,switch=T !numEQ 381667
new line.CTR441512 bus1=BMT151208320.1.2.3,bus2=BMT170736638.1.2.3,Phases=3,LineCode=tieSwitch,Length=0.001,Units=km,switch=T !numEQ 67517
new line.CTR564873 bus1=BMT166341346.1.2.3,bus2=BMT3697023.1.2.3,Phases=3,LineCode=tieSwitch,Length=0.001,Units=km,switch=T !numEQ 7176
new line.CTR566574 bus1=BMT150354089.1.2.3,bus2=BMT169074612.1.2.3,Phases=3,LineCode=tieSwitch,Length=0.001,Units=km,switch=T !numEQ 255613
new line.CTR567232 bus1=BMT168202180.2,bus2=BMT169561436.2,Phases=1,LineCode=tieSwitch1,Length=0.001,Units=km,switch=T !numEQ 299412
new line.CTR567260 bus1=BMT103770704.2,bus2=BMT166967026.2,Phases=1,LineCode=tieSwitch1,Length=0.001,Units=km,switch=T !numEQ 10410
new line.CTR567358 bus1=BMT150353079.1.2.3,bus2=BMT156673647.1.2.3,Phases=3,LineCode=tieSwitch,Length=0.001,Units=km,switch=T !numEQ 11083
new line.CTR567414 bus1=BMT103767505.1.2.3,bus2=BMT171159547.1.2.3,Phases=3,LineCode=tieSwitch,Length=0.001,Units=km,switch=T !numEQ 257774
new line.CTR567498 bus1=BMT103768408.1.2.3,bus2=BMT103768576.1.2.3,Phases=3,LineCode=tieSwitch,Length=0.001,Units=km,switch=T !numEQ 11021
new line.CTR567624 bus1=BMT150353092.1.2.3,bus2=BMT150353094.1.2.3,Phases=3,LineCode=tieSwitch,Length=0.001,Units=km,switch=T !numEQ 7258
new line.CTR596394 bus1=BMT103770193.3,bus2=BMT166960744.3,Phases=1,LineCode=tieSwitch1,Length=0.001,Units=km,switch=T !numEQ 90684
new line.CTR59655 bus1=BMT150354066.1.2.3,bus2=BMT150354074.1.2.3,Phases=3,LineCode=tieSwitch,Length=0.001,Units=km,switch=T !numEQ 8874
new line.CTR59683 bus1=BMT150354149.1.2.3,bus2=BMT150354151.1.2.3,Phases=3,LineCode=tieSwitch,Length=0.001,Units=km,switch=T !numEQ 6985
new line.CTR59739 bus1=BMT150353119.3,bus2=BMT150353124.3,Phases=1,LineCode=tieSwitch1,Length=0.001,Units=km,switch=T !numEQ 8831
new line.CTR59907 bus1=BMT150353955.1.2.3,bus2=BMT150353975.1.2.3,Phases=3,LineCode=tieSwitch,Length=0.001,Units=km,switch=T !numEQ 9342
new line.CTR59963 bus1=BMT166424539.1.2.3,bus2=BMT170631587.1.2.3,Phases=3,LineCode=tieSwitch,Length=0.001,Units=km,switch=T !numEQ 270378
new line.CTR625262 bus1=BMT102838696.1,bus2=BMT102838801.1,Phases=1,LineCode=tieSwitch1,Length=0.001,Units=km,switch=T !numEQ 9375
new line.CTR65045 bus1=BMT103768849.3,bus2=BMT103768856.3,Phases=1,LineCode=tieSwitch1,Length=0.001,Units=km,switch=T !numEQ 8851
new line.CTR65073 bus1=BMT103768667.1.2.3,bus2=BMT151339179.1.2.3,Phases=3,LineCode=tieSwitch,Length=0.001,Units=km,switch=T !numEQ 285377
new line.CTR65101 bus1=BMT103767309.1.2.3,bus2=BMT158563343.1.2.3,Phases=3,LineCode=tieSwitch,Length=0.001,Units=km,switch=T !numEQ 9447
new line.CTR65129 bus1=BMT103773203.1.2.3,bus2=BMT103773371.1.2.3,Phases=3,LineCode=tieSwitch,Length=0.001,Units=km,switch=T !numEQ 8850
new line.CTR65185 bus1=BMT162316130.1.2.3,bus2=BMT172818497.1.2.3,Phases=3,LineCode=tieSwitch,Length=0.001,Units=km,switch=T !numEQ 255616
new line.CTR723696 bus1=BMT103771551.2,bus2=BMT168610550.2,Phases=1,LineCode=tieSwitch1,Length=0.001,Units=km,switch=T !numEQ 215782
new line.CTR724347 bus1=BMT99457080.1.2.3,bus2=BMT99457143.1.2.3,Phases=3,LineCode=tieSwitch,Length=0.001,Units=km,switch=T !numEQ 216505
new line.CTR724361 bus1=BMT99457150.1.2.3,bus2=BMT99457157.1.2.3,Phases=3,LineCode=tieSwitch,Length=0.001,Units=km,switch=T !numEQ 216506
new line.CTR745746 bus1=BMT167814718.1.2.3,bus2=BMT170533086.1.2.3,Phases=3,LineCode=tieSwitch,Length=0.001,Units=km,switch=T !numEQ 102533
new line.CTR155317 bus1=BMT99457003.1.2.3,bus2=BMT99457010.1.2.3,Phases=3,LineCode=tieSwitch,Length=0.001,Units=km,switch=T !numEQ 199733
new line.CTR197597 bus1=BMT103768205.1.2.3,bus2=BMT170816529.1.2.3,Phases=3,LineCode=tieSwitch,Length=0.001,Units=km,switch=T !numEQ 90124
new line.CTR197611 bus1=BMT148560019.1,bus2=BMT166080906.1,Phases=1,LineCode=tieSwitch1,Length=0.001,Units=km,switch=T !numEQ 146333
new line.CTR203911 bus1=BMT171411110.1.2.3,bus2=BMT168622664.1.2.3,Phases=3,LineCode=tieSwitch,Length=0.001,Units=km,switch=T !numEQ 149312
new line.CTR279252 bus1=BMT103772146.2,bus2=BMT168708476.2,Phases=1,LineCode=tieSwitch1,Length=0.001,Units=km,switch=T !numEQ 90380
new line.CTR32145 bus1=BMT150353219.3,bus2=BMT150353225.3,Phases=1,LineCode=tieSwitch1,Length=0.001,Units=km,switch=T !numEQ 8696
new line.CTR321784 bus1=BMT103800902.1.2.3,bus2=BMT103800909.1.2.3,Phases=3,LineCode=tieSwitch,Length=0.001,Units=km,switch=T !numEQ 199736
new line.CTR321819 bus1=BMT103801203.1.2.3,bus2=BMT103801224.1.2.3,Phases=3,LineCode=tieSwitch,Length=0.001,Units=km,switch=T !numEQ 90521
new line.CTR321868 bus1=BMT171761025.1.2.3,bus2=BMT171761029.1.2.3,Phases=3,LineCode=tieSwitch,Length=0.001,Units=km,switch=T !numEQ 199729
new line.CTR321889 bus1=BMT103801637.2,bus2=BMT103803121.2,Phases=1,LineCode=tieSwitch1,Length=0.001,Units=km,switch=T !numEQ 7686
new line.CTR321917 bus1=BMT150353064.3,bus2=BMT150354263.3,Phases=1,LineCode=tieSwitch1,Length=0.001,Units=km,switch=T !numEQ 9498
new line.CTR321931 bus1=BMT150353070.1.2.3,bus2=BMT158538630.1.2.3,Phases=3,LineCode=tieSwitch,Length=0.001,Units=km,switch=T !numEQ 303175
new line.CTR321945 bus1=BMT160805672.1.2.3,bus2=BMT150353082.1.2.3,Phases=3,LineCode=tieSwitch,Length=0.001,Units=km,switch=T !numEQ 7231
new line.CTR321959 bus1=BMT150353113.1.2.3,bus2=BMT161964139.1.2.3,Phases=3,LineCode=tieSwitch,Length=0.001,Units=km,switch=T !numEQ 8771
new line.CTR321973 bus1=BMT150353114.1.2.3,bus2=BMT167649840.1.2.3,Phases=3,LineCode=tieSwitch,Length=0.001,Units=km,switch=T !numEQ 7994
new line.CTR322015 bus1=BMT150353158.1.2.3,bus2=BMT150354163.1.2.3,Phases=3,LineCode=tieSwitch,Length=0.001,Units=km,switch=T !numEQ 8894
new line.CTR322029 bus1=BMT150354047.1.2.3,bus2=BMT150354161.1.2.3,Phases=3,LineCode=tieSwitch,Length=0.001,Units=km,switch=T !numEQ 90318
new line.CTR322043 bus1=BMT150354050.1.2.3,bus2=BMT150354051.1.2.3,Phases=3,LineCode=tieSwitch,Length=0.001,Units=km,switch=T !numEQ 6984
new line.CTR322057 bus1=BMT150354053.1.2.3,bus2=BMT168007370.1.2.3,Phases=3,LineCode=tieSwitch,Length=0.001,Units=km,switch=T !numEQ 6997
new line.CTR322071 bus1=BMT150353277.1.2.3,bus2=BMT150353506.1.2.3,Phases=3,LineCode=tieSwitch,Length=0.001,Units=km,switch=T !numEQ 288188
new line.CTR322099 bus1=BMT150353523.2,bus2=BMT150667991.2,Phases=1,LineCode=tieSwitch1,Length=0.001,Units=km,switch=T !numEQ 10479
new line.CTR322141 bus1=BMT103772013.3,bus2=BMT166986165.3,Phases=1,LineCode=tieSwitch1,Length=0.001,Units=km,switch=T !numEQ 285254
new line.CTR322183 bus1=BMT103772405.2,bus2=BMT168708474.2,Phases=1,LineCode=tieSwitch1,Length=0.001,Units=km,switch=T !numEQ 90358
new line.CTR322197 bus1=BMT150353690.2,bus2=BMT166933254.2,Phases=1,LineCode=tieSwitch1,Length=0.001,Units=km,switch=T !numEQ 289032
new line.CTR322211 bus1=BMT150353593.3,bus2=BMT150353665.3,Phases=1,LineCode=tieSwitch1,Length=0.001,Units=km,switch=T !numEQ 288865
new line.CTR322225 bus1=BMT150341998.1.2.3,bus2=BMT102837002.1.2.3,Phases=3,LineCode=tieSwitch,Length=0.001,Units=km,switch=T !numEQ 10076
new line.CTR355447 bus1=BMT148308322.1.2.3,bus2=BMT102836946.1.2.3,Phases=3,LineCode=tieSwitch,Length=0.001,Units=km,switch=T !numEQ 12311
new line.CTR356413 bus1=BMT102838710.1,bus2=BMT102838773.1,Phases=1,LineCode=tieSwitch1,Length=0.001,Units=km,switch=T !numEQ 205767
new line.CTR40377 bus1=BMT162290255.1.2.3,bus2=BMT151208321.1.2.3,Phases=3,LineCode=tieSwitch,Length=0.001,Units=km,switch=T !numEQ 68007
new line.CTR42841 bus1=BMT102838115.1,bus2=BMT167080720.1,Phases=1,LineCode=tieSwitch1,Length=0.001,Units=km,switch=T !numEQ 9366
new line.CTR47230 bus1=BMT102837044.1.2.3,bus2=BMT102837037.1.2.3,Phases=3,LineCode=tieSwitch,Length=0.001,Units=km,switch=T !numEQ 10077
new line.CTR492304 bus1=BMT163760127.3,bus2=BMT103774043.3,Phases=1,LineCode=tieSwitch1,Length=0.001,Units=km,switch=T !numEQ 137652
new line.CTR541759 bus1=BMT102838087.1,bus2=BMT163095138.1,Phases=1,LineCode=tieSwitch1,Length=0.001,Units=km,switch=T !numEQ 8748
new line.CTR543187 bus1=BMT102838836.1,bus2=BMT102838850.1,Phases=1,LineCode=tieSwitch1,Length=0.001,Units=km,switch=T !numEQ 9473
new line.CTR543831 bus1=BMT151208334.3,bus2=BMT151208362.3,Phases=1,LineCode=tieSwitch1,Length=0.001,Units=km,switch=T !numEQ 305537
new line.CTR591676 bus1=BMT102838570.1,bus2=BMT102838906.1,Phases=1,LineCode=tieSwitch1,Length=0.001,Units=km,switch=T !numEQ 148677
new line.CTR646598 bus1=BMT102838164.1,bus2=BMT102838416.1,Phases=1,LineCode=tieSwitch1,Length=0.001,Units=km,switch=T !numEQ 147676
new line.CTR699539 bus1=BMT103770795.2,bus2=BMT172125255.2,Phases=1,LineCode=tieSwitch1,Length=0.001,Units=km,switch=T !numEQ 206282
new line.CTR760152 bus1=BMT103803317.1.2.3,bus2=BMT103803443.1.2.3,Phases=3,LineCode=tieSwitch,Length=0.001,Units=km,switch=T !numEQ 225848
new line.CTR762119 bus1=BMT150354126.1.2.3,bus2=BMT150354128.1.2.3,Phases=3,LineCode=tieSwitch,Length=0.001,Units=km,switch=T !numEQ 192222
new line.CTR762126 bus1=BMT150354125.1.2.3,bus2=BMT150354130.1.2.3,Phases=3,LineCode=tieSwitch,Length=0.001,Units=km,switch=T !numEQ 192221
new line.CTR762140 bus1=BMT150354121.1.2.3,bus2=BMT151761821.1.2.3,Phases=3,LineCode=tieSwitch,Length=0.001,Units=km,switch=T !numEQ 192223
new line.CTR800031 bus1=BMT156193065.1.2.3,bus2=BMT156193066.1.2.3,Phases=3,LineCode=tieSwitch,Length=0.001,Units=km,switch=T !numEQ 303090
new line.CTR800213 bus1=BMT150353637.1.2.3,bus2=BMT150353643.1.2.3,Phases=3,LineCode=tieSwitch,Length=0.001,Units=km,switch=T !numEQ 288870
new line.CTR8023 bus1=BMT99456814.1.2.3,bus2=BMT157033209.1.2.3,Phases=3,LineCode=tieSwitch,Length=0.001,Units=km,switch=T !numEQ 150725
new line.CTR849749 bus1=BMT149796405.2,bus2=BMT166954041.2,Phases=1,LineCode=tieSwitch1,Length=0.001,Units=km,switch=T !numEQ 285387
new line.CTR167315 bus1=BMT103769122.1,bus2=BMT153118331.1,Phases=1,LineCode=tieSwitch1,Length=0.001,Units=km,switch=T !numEQ 149604
new line.CTR180412 bus1=BMT167090098.2,bus2=BMT167501129.2,Phases=1,LineCode=tieSwitch1,Length=0.001,Units=km,switch=T !numEQ 137491
new line.CTR180650 bus1=BMT150353061.1.2.3,bus2=BMT155576596.1.2.3,Phases=3,LineCode=tieSwitch,Length=0.001,Units=km,switch=T !numEQ 90145
new line.CTR180664 bus1=BMT99456380.1.2.3,bus2=BMT99456387.1.2.3,Phases=3,LineCode=tieSwitch,Length=0.001,Units=km,switch=T !numEQ 11084
new line.CTR180678 bus1=BMT150353066.1.2.3,bus2=BMT170744402.1.2.3,Phases=3,LineCode=tieSwitch,Length=0.001,Units=km,switch=T !numEQ 90510
new line.CTR212780 bus1=BMT150353184.1.2.3,bus2=BMT157466629.1.2.3,Phases=3,LineCode=tieSwitch,Length=0.001,Units=km,switch=T !numEQ 108116
new line.CTR212934 bus1=BMT103773994.2,bus2=BMT166626940.2,Phases=1,LineCode=tieSwitch1,Length=0.001,Units=km,switch=T !numEQ 7142
new line.CTR234200 bus1=BMT150354189.1.2.3,bus2=BMT150354192.1.2.3,Phases=3,LineCode=tieSwitch,Length=0.001,Units=km,switch=T !numEQ 112567
new line.CTR234312 bus1=BMT103802701.3,bus2=BMT103802708.3,Phases=1,LineCode=tieSwitch1,Length=0.001,Units=km,switch=T !numEQ 112601
new line.CTR319551 bus1=BMT103803555.3,bus2=BMT103803562.3,Phases=1,LineCode=tieSwitch1,Length=0.001,Units=km,switch=T !numEQ 105153
new line.CTR319593 bus1=BMT103773518.2,bus2=BMT171142276.2,Phases=1,LineCode=tieSwitch1,Length=0.001,Units=km,switch=T !numEQ 8764
new line.CTR320216 bus1=BMT150353694.1.2.3,bus2=BMT169384032.1.2.3,Phases=3,LineCode=tieSwitch,Length=0.001,Units=km,switch=T !numEQ 303031
new line.CTR320804 bus1=BMT102836988.1.2.3,bus2=BMT102836981.1.2.3,Phases=3,LineCode=tieSwitch,Length=0.001,Units=km,switch=T !numEQ 9694
new line.CTR334146 bus1=BMT103774526.1.2.3,bus2=BMT103774533.1.2.3,Phases=3,LineCode=tieSwitch,Length=0.001,Units=km,switch=T !numEQ 14324
new line.CTR334783 bus1=BMT103771936.1,bus2=BMT166986135.1,Phases=1,LineCode=tieSwitch1,Length=0.001,Units=km,switch=T !numEQ 226323
new line.CTR349105 bus1=BMT169073470.1.2.3,bus2=BMT166749928.1.2.3,Phases=3,LineCode=tieSwitch,Length=0.001,Units=km,switch=T !numEQ 302068
open line.CTR349105 term=1
new line.CTR349455 bus1=BMT103771089.2,bus2=BMT166967054.2,Phases=1,LineCode=tieSwitch1,Length=0.001,Units=km,switch=T !numEQ 90228
new line.CTR349742 bus1=BMT150353977.1,bus2=BMT163825204.1,Phases=1,LineCode=tieSwitch1,Length=0.001,Units=km,switch=T !numEQ 149176
new line.CTR349812 bus1=BMT103771544.2,bus2=BMT166966935.2,Phases=1,LineCode=tieSwitch1,Length=0.001,Units=km,switch=T !numEQ 148685
new line.CTR350554 bus1=BMT150353817.3,bus2=BMT168251535.3,Phases=1,LineCode=tieSwitch1,Length=0.001,Units=km,switch=T !numEQ 252118
new line.CTR350757 bus1=BMT103773210.1.2.3,bus2=BMT148873647.1.2.3,Phases=3,LineCode=tieSwitch,Length=0.001,Units=km,switch=T !numEQ 9378
new line.CTR371505 bus1=BMT166006335.1.2.3,bus2=BMT16314384.1.2.3,Phases=3,LineCode=tieSwitch,Length=0.001,Units=km,switch=T !numEQ 199744
open line.CTR371505 term=1
new line.CTR39159 bus1=BMT103803506.3,bus2=BMT162976942.3,Phases=1,LineCode=tieSwitch1,Length=0.001,Units=km,switch=T !numEQ 9130
new line.CTR475511 bus1=BMT103803303.1.2.3,bus2=BMT103803478.1.2.3,Phases=3,LineCode=tieSwitch,Length=0.001,Units=km,switch=T !numEQ 8882
new line.CTR495090 bus1=BMT160755414.1.2.3,bus2=BMT99457108.1.2.3,Phases=3,LineCode=tieSwitch,Length=0.001,Units=km,switch=T !numEQ 199742
new line.CTR495517 bus1=BMT150353057.1.2.3,bus2=BMT150353058.1.2.3,Phases=3,LineCode=tieSwitch,Length=0.001,Units=km,switch=T !numEQ 90774
new line.CTR495951 bus1=BMT168562756.1.2.3,bus2=BMT103803233.1.2.3,Phases=3,LineCode=tieSwitch,Length=0.001,Units=km,switch=T !numEQ 8081
new line.CTR496224 bus1=BMT138652859.1.2.3,bus2=BMT103803289.1.2.3,Phases=3,LineCode=tieSwitch,Length=0.001,Units=km,switch=T !numEQ 199732
new line.CTR496231 bus1=BMT135184590.1.2.3,bus2=BMT103801574.1.2.3,Phases=3,LineCode=tieSwitch,Length=0.001,Units=km,switch=T !numEQ 150724
new line.CTR496245 bus1=BMT155632385.1.2.3,bus2=BMT17428749.1.2.3,Phases=3,LineCode=tieSwitch,Length=0.001,Units=km,switch=T !numEQ 199731
open line.CTR496245 term=1
new line.CTR496252 bus1=BMT155632383.1.2.3,bus2=BMT155632384.1.2.3,Phases=3,LineCode=tieSwitch,Length=0.001,Units=km,switch=T !numEQ 199730
new line.CTR553295 bus1=BMT103775037.3,bus2=BMT167478234.3,Phases=1,LineCode=tieSwitch1,Length=0.001,Units=km,switch=T !numEQ 141216
new line.CTR631492 bus1=BMT150354058.1.2.3,bus2=BMT150354145.1.2.3,Phases=3,LineCode=tieSwitch,Length=0.001,Units=km,switch=T !numEQ 128109
new line.CTR679351 bus1=BMT103775324.1,bus2=BMT103775541.1,Phases=1,LineCode=tieSwitch1,Length=0.001,Units=km,switch=T !numEQ 149259
new line.CTR702514 bus1=BMT103772230.2,bus2=BMT168708465.2,Phases=1,LineCode=tieSwitch1,Length=0.001,Units=km,switch=T !numEQ 10181
new line.CTR767152 bus1=BMT103774932.3,bus2=BMT167478236.3,Phases=1,LineCode=tieSwitch1,Length=0.001,Units=km,switch=T !numEQ 138434
new line.CTR810566 bus1=BMT122964312.1,bus2=BMT162981025.1,Phases=1,LineCode=tieSwitch1,Length=0.001,Units=km,switch=T !numEQ 285383
new line.CTR888890 bus1=BMT162581051.3,bus2=BMT166960691.3,Phases=1,LineCode=tieSwitch1,Length=0.001,Units=km,switch=T !numEQ 402386
new line.CTR889006 bus1=BMT162645161.1.2.3,bus2=BMT162651260.1.2.3,Phases=3,LineCode=tieSwitch,Length=0.001,Units=km,switch=T !numEQ 257027
new line.CTR898938 bus1=BMT166342938.1,bus2=BMT168485694.1,Phases=1,LineCode=tieSwitch1,Length=0.001,Units=km,switch=T !numEQ 255584
new line.CTR898993 bus1=BMT166360146.3,bus2=BMT166360175.3,Phases=1,LineCode=tieSwitch1,Length=0.001,Units=km,switch=T !numEQ 402518
new line.CTR898995 bus1=BMT166360176.3,bus2=BMT166361671.3,Phases=1,LineCode=tieSwitch1,Length=0.001,Units=km,switch=T !numEQ 402328
new line.CTR899094 bus1=BMT166397245.3,bus2=BMT166397264.3,Phases=1,LineCode=tieSwitch1,Length=0.001,Units=km,switch=T !numEQ 285386
new line.CTR899099 bus1=BMT166397928.3,bus2=BMT166397941.3,Phases=1,LineCode=tieSwitch1,Length=0.001,Units=km,switch=T !numEQ 285388
new line.CTR899103 bus1=BMT166398331.2,bus2=BMT166954406.2,Phases=1,LineCode=tieSwitch1,Length=0.001,Units=km,switch=T !numEQ 285389
new line.CTRR28379 bus1=BMT132305889.1.2.3,bus2=BMT162688157.1.2.3,Phases=3,LineCode=tieSwitch,Length=0.001,Units=km,switch=T !numEQ 302296
new line.CTR748000 bus1=BMT170108220.3,bus2=BMT170108224.3,Phases=1,LineCode=tieSwitch1,Length=0.001,Units=km,switch=T !numEQ 230373
new line.CTR792576 bus1=BMT150353469.1.2.3,bus2=BMT150353492.1.2.3,Phases=3,LineCode=tieSwitch,Length=0.001,Units=km,switch=T !numEQ 285271
new line.CTR814934 bus1=BMT150353511.1.2.3,bus2=BMT170736200.1.2.3,Phases=3,LineCode=tieSwitch,Length=0.001,Units=km,switch=T !numEQ 288185
new line.CTR816005 bus1=BMT127409431.1,bus2=BMT127409473.1,Phases=1,LineCode=tieSwitch1,Length=0.001,Units=km,switch=T !numEQ 310661
new line.CTR856486 bus1=BMT151761824.1.2.3,bus2=BMT151761827.1.2.3,Phases=3,LineCode=tieSwitch,Length=0.001,Units=km,switch=T !numEQ 382334
new line.CTR86220 bus1=BMT103802239.3,bus2=BMT103802449.3,Phases=1,LineCode=tieSwitch1,Length=0.001,Units=km,switch=T !numEQ 147668
new line.CTR862973 bus1=BMT169073476.1.2.3,bus2=BMT166425785.1.2.3,Phases=3,LineCode=tieSwitch,Length=0.001,Units=km,switch=T !numEQ 377282
open line.CTR862973 term=1
new line.CTR876309 bus1=BMT157601130.1.2.3,bus2=BMT157601132.1.2.3,Phases=3,LineCode=tieSwitch,Length=0.001,Units=km,switch=T !numEQ 252145
new line.CTR892188 bus1=BMT163992294.3,bus2=BMT163992295.3,Phases=1,LineCode=tieSwitch1,Length=0.001,Units=km,switch=T !numEQ 267524
new line.CTR902505 bus1=BMT168047761.1.2.3,bus2=BMT169457260.1.2.3,Phases=3,LineCode=tieSwitch,Length=0.001,Units=km,switch=T !numEQ 273550
new line.CTR902532 bus1=BMT167476459.1,bus2=BMT167476473.1,Phases=1,LineCode=tieSwitch1,Length=0.001,Units=km,switch=T !numEQ 378556
new line.CTR902536 bus1=BMT167477599.2,bus2=BMT168422274.2,Phases=1,LineCode=tieSwitch1,Length=0.001,Units=km,switch=T !numEQ 378555
new line.CTR902539 bus1=BMT167477933.3,bus2=BMT167478217.3,Phases=1,LineCode=tieSwitch1,Length=0.001,Units=km,switch=T !numEQ 378553
new line.CTR902779 bus1=BMT168657411.3,bus2=BMT168657884.3,Phases=1,LineCode=tieSwitch1,Length=0.001,Units=km,switch=T !numEQ 384406
new line.CTR902782 bus1=BMT169449430.1.2.3,bus2=BMT168652508.1.2.3,Phases=3,LineCode=tieSwitch,Length=0.001,Units=km,switch=T !numEQ 273551
new line.CTR907273 bus1=BMT169167362.1.2.3,bus2=BMT169167355.1.2.3,Phases=3,LineCode=tieSwitch,Length=0.001,Units=km,switch=T !numEQ 276561
open line.CTR907273 term=1
new line.CTR907275 bus1=BMT169167967.1.2.3,bus2=BMT169167789.1.2.3,Phases=3,LineCode=tieSwitch,Length=0.001,Units=km,switch=T !numEQ 276560
new line.CTR907276 bus1=BMT169167973.1.2.3,bus2=BMT169167972.1.2.3,Phases=3,LineCode=tieSwitch,Length=0.001,Units=km,switch=T !numEQ 276923
new line.CTR913071 bus1=BMT171152947.2,bus2=BMT171152952.2,Phases=1,LineCode=tieSwitch1,Length=0.001,Units=km,switch=T !numEQ 323420
new line.CTRR39147 bus1=BMT165564380.1.2.3,bus2=BMT165564381.1.2.3,Phases=3,LineCode=tieSwitch,Length=0.001,Units=km,switch=T !numEQ 402395
new line.CTRR39857 bus1=BMT167016456.1.2.3,bus2=BMT167016457.1.2.3,Phases=3,LineCode=tieSwitch,Length=0.001,Units=km,switch=T !numEQ 273101
new line.CTRR39896 bus1=BMT150353558.1.2.3,bus2=BMT150353560.1.2.3,Phases=3,LineCode=tieSwitch,Length=0.001,Units=km,switch=T !numEQ 288196
new line.CTRR39909 bus1=BMT167090790.1,bus2=BMT171288361.1,Phases=1,LineCode=tieSwitch1,Length=0.001,Units=km,switch=T !numEQ 158956
new line.CTR849802 bus1=BMT150353819.3,bus2=BMT168251553.3,Phases=1,LineCode=tieSwitch1,Length=0.001,Units=km,switch=T !numEQ 309799
new line.CTR869633 bus1=BMT157033212.1.2.3,bus2=BMT155582639.1.2.3,Phases=3,LineCode=tieSwitch,Length=0.001,Units=km,switch=T !numEQ 315802
open line.CTR869633 term=1
new line.CTR869640 bus1=BMT167394438.1.2.3,bus2=BMT167591582.1.2.3,Phases=3,LineCode=tieSwitch,Length=0.001,Units=km,switch=T !numEQ 303172
new line.CTR869641 bus1=BMT168905627.1.2.3,bus2=BMT167591583.1.2.3,Phases=3,LineCode=tieSwitch,Length=0.001,Units=km,switch=T !numEQ 303173
open line.CTR869641 term=1
new line.CTR869643 bus1=BMT155576802.1.2.3,bus2=BMT158538628.1.2.3,Phases=3,LineCode=tieSwitch,Length=0.001,Units=km,switch=T !numEQ 303174
new line.CTR869650 bus1=BMT160809058.1.2.3,bus2=BMT155577902.1.2.3,Phases=3,LineCode=tieSwitch,Length=0.001,Units=km,switch=T !numEQ 376658
open line.CTR869650 term=1
new line.CTR869667 bus1=BMT155580923.1.2.3,bus2=BMT169406961.1.2.3,Phases=3,LineCode=tieSwitch,Length=0.001,Units=km,switch=T !numEQ 303176
new line.CTR870202 bus1=BMT159367691.1.2.3,bus2=BMT155726618.1.2.3,Phases=3,LineCode=tieSwitch,Length=0.001,Units=km,switch=T !numEQ 315803
new line.CTR876995 bus1=BMT157857871.3,bus2=BMT164079445.3,Phases=1,LineCode=tieSwitch1,Length=0.001,Units=km,switch=T !numEQ 251561
new line.CTR877007 bus1=BMT157865083.3,bus2=BMT166960750.3,Phases=1,LineCode=tieSwitch1,Length=0.001,Units=km,switch=T !numEQ 255604
new line.CTR886229 bus1=BMT161462404.2,bus2=BMT166967075.2,Phases=1,LineCode=tieSwitch1,Length=0.001,Units=km,switch=T !numEQ 264402
new line.CTR886968 bus1=BMT166420955.1.2.3,bus2=BMT169073466.1.2.3,Phases=3,LineCode=tieSwitch,Length=0.001,Units=km,switch=T !numEQ 377280
new line.CTR904626 bus1=BMT168829045.1.2.3,bus2=BMT169655239.1.2.3,Phases=3,LineCode=tieSwitch,Length=0.001,Units=km,switch=T !numEQ 384252
new line.CTR904641 bus1=BMT168828968.1,bus2=BMT168829067.1,Phases=1,LineCode=tieSwitch1,Length=0.001,Units=km,switch=T !numEQ 384246
new line.CTR904657 bus1=BMT169655242.1.2.3,bus2=BMT169654265.1.2.3,Phases=3,LineCode=tieSwitch,Length=0.001,Units=km,switch=T !numEQ 384247
new line.CTR904661 bus1=BMT168186700.1,bus2=BMT168186699.1,Phases=1,LineCode=tieSwitch1,Length=0.001,Units=km,switch=T !numEQ 384245
new line.CTR904692 bus1=BMT168201400.3,bus2=BMT168204594.3,Phases=1,LineCode=tieSwitch1,Length=0.001,Units=km,switch=T !numEQ 378551
new line.CTR904696 bus1=BMT168202004.1.2.3,bus2=BMT170939222.1.2.3,Phases=3,LineCode=tieSwitch,Length=0.001,Units=km,switch=T !numEQ 378550
new line.CTR904849 bus1=BMT168248538.2,bus2=BMT168248564.2,Phases=1,LineCode=tieSwitch1,Length=0.001,Units=km,switch=T !numEQ 381663
new line.CTR904853 bus1=BMT168249349.2,bus2=BMT168249361.2,Phases=1,LineCode=tieSwitch1,Length=0.001,Units=km,switch=T !numEQ 381664
new line.CTR904855 bus1=BMT168249758.1.2.3,bus2=BMT169384132.1.2.3,Phases=3,LineCode=tieSwitch,Length=0.001,Units=km,switch=T !numEQ 381665
new line.CTR905081 bus1=BMT168350944.2,bus2=BMT168350977.2,Phases=1,LineCode=tieSwitch1,Length=0.001,Units=km,switch=T !numEQ 378548
new line.CTR905082 bus1=BMT168351078.2,bus2=BMT168351101.2,Phases=1,LineCode=tieSwitch1,Length=0.001,Units=km,switch=T !numEQ 378547
new line.CTR905083 bus1=BMT168351242.1.2.3,bus2=BMT169561187.1.2.3,Phases=3,LineCode=tieSwitch,Length=0.001,Units=km,switch=T !numEQ 378546
new line.CTR905084 bus1=BMT168351550.1,bus2=BMT168610987.1,Phases=1,LineCode=tieSwitch1,Length=0.001,Units=km,switch=T !numEQ 378543
new line.CTR911611 bus1=BMT170632396.1.2.3,bus2=BMT170632313.1.2.3,Phases=3,LineCode=tieSwitch,Length=0.001,Units=km,switch=T !numEQ 280089
new line.CTR911612 bus1=BMT170632402.1.2.3,bus2=BMT170632401.1.2.3,Phases=3,LineCode=tieSwitch,Length=0.001,Units=km,switch=T !numEQ 280088
new line.CTRR13434 bus1=BMT150353174.1.2.3,bus2=BMT150353175.1.2.3,Phases=3,LineCode=tieSwitch,Length=0.001,Units=km,switch=T !numEQ 205931
new line.CTRR14827 bus1=BMT103773021.2,bus2=BMT172453560.2,Phases=1,LineCode=tieSwitch1,Length=0.001,Units=km,switch=T !numEQ 204602
new line.CTRR37266 bus1=BMT169073477.1.2.3,bus2=BMT162339982.1.2.3,Phases=3,LineCode=tieSwitch,Length=0.001,Units=km,switch=T !numEQ 265354
open line.CTRR37266 term=1
new line.CTR637428 bus1=BMT103767932.1.2.3,bus2=BMT166420712.1.2.3,Phases=3,LineCode=tieSwitch,Length=0.001,Units=km,switch=T !numEQ 255618
new line.CTR637484 bus1=BMT103767785.1.2.3,bus2=BMT168239642.1.2.3,Phases=3,LineCode=tieSwitch,Length=0.001,Units=km,switch=T !numEQ 257104
new line.CTR637540 bus1=BMT103773819.1.2.3,bus2=BMT152706386.1.2.3,Phases=3,LineCode=tieSwitch,Length=0.001,Units=km,switch=T !numEQ 90000
new line.CTR637568 bus1=BMT103774169.2,bus2=BMT160116718.2,Phases=1,LineCode=tieSwitch1,Length=0.001,Units=km,switch=T !numEQ 90465
new line.CTR637645 bus1=BMT103775247.1,bus2=BMT160020546.1,Phases=1,LineCode=tieSwitch1,Length=0.001,Units=km,switch=T !numEQ 7360
new line.CTR662712 bus1=BMT150353287.1.2.3,bus2=BMT150353288.1.2.3,Phases=3,LineCode=tieSwitch,Length=0.001,Units=km,switch=T !numEQ 7137
new line.CTR752396 bus1=BMT103802876.3,bus2=BMT103802939.3,Phases=1,LineCode=tieSwitch1,Length=0.001,Units=km,switch=T !numEQ 225867
new line.CTR752536 bus1=BMT102837926.1,bus2=BMT167279918.1,Phases=1,LineCode=tieSwitch1,Length=0.001,Units=km,switch=T !numEQ 225866
new line.CTR752858 bus1=BMT133457907.2,bus2=BMT172861116.2,Phases=1,LineCode=tieSwitch1,Length=0.001,Units=km,switch=T !numEQ 226026
new line.CTR753383 bus1=BMT103771348.2,bus2=BMT166967086.2,Phases=1,LineCode=tieSwitch1,Length=0.001,Units=km,switch=T !numEQ 226398
new line.CTR781152 bus1=BMT171143566.3,bus2=BMT171143573.3,Phases=1,LineCode=tieSwitch1,Length=0.001,Units=km,switch=T !numEQ 90202
new line.CTR817335 bus1=BMT128325059.2,bus2=BMT166967007.2,Phases=1,LineCode=tieSwitch1,Length=0.001,Units=km,switch=T !numEQ 292650
new line.CTR8177 bus1=BMT103801077.1.2.3,bus2=BMT103801091.1.2.3,Phases=3,LineCode=tieSwitch,Length=0.001,Units=km,switch=T !numEQ 199737
new line.CTR839854 bus1=BMT138650724.1.2.3,bus2=BMT160081173.1.2.3,Phases=3,LineCode=tieSwitch,Length=0.001,Units=km,switch=T !numEQ 307645
new line.CTR839861 bus1=BMT138652845.1.2.3,bus2=BMT162715303.1.2.3,Phases=3,LineCode=tieSwitch,Length=0.001,Units=km,switch=T !numEQ 308057
new line.CTR858946 bus1=BMT152518527.1.2.3,bus2=BMT152518528.1.2.3,Phases=3,LineCode=tieSwitch,Length=0.001,Units=km,switch=T !numEQ 167487
new line.CTR867587 bus1=BMT154968475.1.2.3,bus2=BMT165018102.1.2.3,Phases=3,LineCode=tieSwitch,Length=0.001,Units=km,switch=T !numEQ 318087
...