CemigDFeeders/CETU04/CETU04Transformadores.dss
new transformer.1107696 Phases=1,Windings=3,Buses=[BMT172861143.2 BBT24742314.1.0 BBT24742314.0.2],Conns=[wye wye wye],kvs=[7.967 0.12 0.12],kvas=[5.000000000 5.000000000 5.000000000],Taps=[1,1.000000000,1.000000000],%loadloss=1.900000000,%noloadloss=0.600000000
new transformer.1123586 Phases=1,Windings=3,Buses=[BMT172861126.2 BBT27968656.1.0 BBT27968656.0.2],Conns=[wye wye wye],kvs=[7.967 0.12 0.12],kvas=[5.000000000 5.000000000 5.000000000],Taps=[1,1.000000000,1.000000000],%loadloss=1.900000000,%noloadloss=0.600000000
new transformer.1123803 Phases=1,Windings=3,Buses=[BMT150353654.3 BBT28032839.1.0 BBT28032839.0.2],Conns=[wye wye wye],kvs=[7.967 0.12 0.12],kvas=[15.000000000 15.000000000 15.000000000],Taps=[1,1.000000000,1.000000000],%loadloss=1.600000000,%noloadloss=0.400000000
new transformer.1170038 Phases=1,Windings=3,Buses=[BMT165138618.3 BBT36297389.1.0 BBT36297389.0.2],Conns=[wye wye wye],kvs=[7.967 0.12 0.12],kvas=[5.000000000 5.000000000 5.000000000],Taps=[1,1.000000000,1.000000000],%loadloss=1.900000000,%noloadloss=0.600000000
new transformer.1171053 Phases=1,Windings=3,Buses=[BMT165945467.1 BBT36472039.1.0 BBT36472039.0.2],Conns=[wye wye wye],kvs=[7.967 0.12 0.12],kvas=[5.000000000 5.000000000 5.000000000],Taps=[1,1.000000000,1.000000000],%loadloss=1.900000000,%noloadloss=0.600000000
new transformer.1293665 Phases=1,Windings=3,Buses=[BMT148873651.1 BBT78677909.1.0 BBT78677909.0.2],Conns=[wye wye wye],kvs=[7.967 0.12 0.12],kvas=[15.000000000 15.000000000 15.000000000],Taps=[1,1.000000000,1.000000000],%loadloss=1.600000000,%noloadloss=0.400000000
new transformer.1316856 Phases=1,Windings=3,Buses=[BMT103801714.1 BBT91817609.1.0 BBT91817609.0.2],Conns=[wye wye wye],kvs=[7.967 0.12 0.12],kvas=[5.000000000 5.000000000 5.000000000],Taps=[1,1.000000000,1.000000000],%loadloss=1.900000000,%noloadloss=0.600000000
new transformer.131699 Phases=1,Windings=3,Buses=[BMT171152961.2 BBT1176925.1.0 BBT1176925.0.2],Conns=[wye wye wye],kvs=[7.967 0.12 0.12],kvas=[25.000000000 25.000000000 25.000000000],Taps=[1,1.000000000,1.000000000],%loadloss=1.420000000,%noloadloss=0.320000000
new transformer.131706 Phases=3,Windings=2,Buses=[BMT150353115.1.2.3 BBT1176981.1.2.3.0],Conns=[delta wye],kvs=[13.8 0.22],kvas=[30.000000000 30.000000000],Taps=[1,1.000000000],%loadloss=1.667000000,%noloadloss=0.433333000
new transformer.131713 Phases=3,Windings=2,Buses=[BMT171152949.1.2.3 BBT1177093.1.2.3.0],Conns=[delta wye],kvs=[13.8 0.22],kvas=[30.000000000 30.000000000],Taps=[1,1.000000000],%loadloss=1.667000000,%noloadloss=0.433333000
new transformer.131727 Phases=1,Windings=3,Buses=[BMT171152957.2 BBT1177219.1.0 BBT1177219.0.2],Conns=[wye wye wye],kvs=[7.967 0.12 0.12],kvas=[35.000000000 35.000000000 35.000000000],Taps=[1,1.000000000,1.000000000],%loadloss=1.293000000,%noloadloss=0.342857000
new transformer.131734 Phases=1,Windings=3,Buses=[BMT103774120.3 BBT1177275.1.0 BBT1177275.0.2],Conns=[wye wye wye],kvs=[7.967 0.12 0.12],kvas=[10.000000000 10.000000000 10.000000000],Taps=[1,1.000000000,1.000000000],%loadloss=1.800000000,%noloadloss=0.450000000
new transformer.131741 Phases=3,Windings=2,Buses=[BMT161962571.1.2.3 BBT1177331.1.2.3.0],Conns=[delta wye],kvs=[13.8 0.22],kvas=[75.000000000 75.000000000],Taps=[1,1.000000000],%loadloss=1.340000000,%noloadloss=0.340000000
new transformer.131748 Phases=3,Windings=2,Buses=[BMT150354216.1.2.3 BBT1177422.1.2.3.0],Conns=[delta wye],kvs=[13.8 0.22],kvas=[45.000000000 45.000000000],Taps=[1,1.000000000],%loadloss=1.522000000,%noloadloss=0.377777000
new transformer.131755 Phases=1,Windings=3,Buses=[BMT173104526.2 BBT1177457.1.0 BBT1177457.0.2],Conns=[wye wye wye],kvs=[7.967 0.12 0.12],kvas=[10.000000000 10.000000000 10.000000000],Taps=[1,1.000000000,1.000000000],%loadloss=1.800000000,%noloadloss=0.450000000
new transformer.131762 Phases=1,Windings=3,Buses=[BMT171142277.2 BBT1177471.1.0 BBT1177471.0.2],Conns=[wye wye wye],kvs=[7.967 0.12 0.12],kvas=[35.000000000 35.000000000 35.000000000],Taps=[1,1.000000000,1.000000000],%loadloss=1.293000000,%noloadloss=0.342857000
new transformer.131776 Phases=1,Windings=3,Buses=[BMT164979873.3 BBT1177583.1.0 BBT1177583.0.2],Conns=[wye wye wye],kvs=[7.967 0.12 0.12],kvas=[10.000000000 10.000000000 10.000000000],Taps=[1,1.000000000,1.000000000],%loadloss=1.800000000,%noloadloss=0.450000000
new transformer.131783 Phases=1,Windings=3,Buses=[BMT150354252.3 BBT1177639.1.0 BBT1177639.0.2],Conns=[wye wye wye],kvs=[7.967 0.12 0.12],kvas=[35.000000000 35.000000000 35.000000000],Taps=[1,1.000000000,1.000000000],%loadloss=1.293000000,%noloadloss=0.342857000
new transformer.131804 Phases=1,Windings=3,Buses=[BMT158128686.2 BBT1177758.1.0 BBT1177758.0.2],Conns=[wye wye wye],kvs=[7.967 0.12 0.12],kvas=[10.000000000 10.000000000 10.000000000],Taps=[1,1.000000000,1.000000000],%loadloss=1.800000000,%noloadloss=0.450000000
...